
---------- Begin Simulation Statistics ----------
sim_seconds                                  0.537066                       # Number of seconds simulated
sim_ticks                                537066208000                       # Number of ticks simulated
final_tick                               537066208000                       # Number of ticks from beginning of simulation (restored from checkpoints and never reset)
sim_freq                                 1000000000000                       # Frequency of simulated ticks
host_inst_rate                                 528417                       # Simulator instruction rate (inst/s)
host_op_rate                                   861763                       # Simulator op (including micro ops) rate (op/s)
host_tick_rate                             1138997538                       # Simulator tick rate (ticks/s)
host_mem_usage                                 664988                       # Number of bytes of host memory used
host_seconds                                   471.53                       # Real time elapsed on the host
sim_insts                                   249161758                       # Number of instructions simulated
sim_ops                                     406343090                       # Number of ops (including micro ops) simulated
system.voltage_domain.voltage                       1                       # Voltage in Volts
system.clk_domain.clock                          1000                       # Clock period in ticks
system.mem_ctrls.pwrStateResidencyTicks::UNDEFINED 537066208000                       # Cumulative time (in ticks) in various power states
system.mem_ctrls.bytes_read::cpu.inst           22720                       # Number of bytes read from this memory
system.mem_ctrls.bytes_read::cpu.data         7667712                       # Number of bytes read from this memory
system.mem_ctrls.bytes_read::total            7690432                       # Number of bytes read from this memory
system.mem_ctrls.bytes_inst_read::cpu.inst        22720                       # Number of instructions bytes read from this memory
system.mem_ctrls.bytes_inst_read::total         22720                       # Number of instructions bytes read from this memory
system.mem_ctrls.bytes_written::writebacks      6249024                       # Number of bytes written to this memory
system.mem_ctrls.bytes_written::total         6249024                       # Number of bytes written to this memory
system.mem_ctrls.num_reads::cpu.inst              355                       # Number of read requests responded to by this memory
system.mem_ctrls.num_reads::cpu.data           119808                       # Number of read requests responded to by this memory
system.mem_ctrls.num_reads::total              120163                       # Number of read requests responded to by this memory
system.mem_ctrls.num_writes::writebacks         97641                       # Number of write requests responded to by this memory
system.mem_ctrls.num_writes::total              97641                       # Number of write requests responded to by this memory
system.mem_ctrls.bw_read::cpu.inst              42304                       # Total read bandwidth from this memory (bytes/s)
system.mem_ctrls.bw_read::cpu.data           14277033                       # Total read bandwidth from this memory (bytes/s)
system.mem_ctrls.bw_read::total              14319337                       # Total read bandwidth from this memory (bytes/s)
system.mem_ctrls.bw_inst_read::cpu.inst         42304                       # Instruction read bandwidth from this memory (bytes/s)
system.mem_ctrls.bw_inst_read::total            42304                       # Instruction read bandwidth from this memory (bytes/s)
system.mem_ctrls.bw_write::writebacks        11635482                       # Write bandwidth from this memory (bytes/s)
system.mem_ctrls.bw_write::total             11635482                       # Write bandwidth from this memory (bytes/s)
system.mem_ctrls.bw_total::writebacks        11635482                       # Total bandwidth to/from this memory (bytes/s)
system.mem_ctrls.bw_total::cpu.inst             42304                       # Total bandwidth to/from this memory (bytes/s)
system.mem_ctrls.bw_total::cpu.data          14277033                       # Total bandwidth to/from this memory (bytes/s)
system.mem_ctrls.bw_total::total             25954819                       # Total bandwidth to/from this memory (bytes/s)
system.pwrStateResidencyTicks::UNDEFINED 537066208000                       # Cumulative time (in ticks) in various power states
system.cpu_voltage_domain.voltage                   1                       # Voltage in Volts
system.cpu_clk_domain.clock                       500                       # Clock period in ticks
system.cpu.dtb.walker.pwrStateResidencyTicks::UNDEFINED 537066208000                       # Cumulative time (in ticks) in various power states
system.cpu.dtb.rdAccesses                   118034006                       # TLB accesses on read requests
system.cpu.dtb.wrAccesses                    31915293                       # TLB accesses on write requests
system.cpu.dtb.rdMisses                          2737                       # TLB misses on read requests
system.cpu.dtb.wrMisses                           497                       # TLB misses on write requests
system.cpu.apic_clk_domain.clock                 8000                       # Clock period in ticks
system.cpu.interrupts.pwrStateResidencyTicks::UNDEFINED 537066208000                       # Cumulative time (in ticks) in various power states
system.cpu.itb.walker.pwrStateResidencyTicks::UNDEFINED 537066208000                       # Cumulative time (in ticks) in various power states
system.cpu.itb.rdAccesses                           0                       # TLB accesses on read requests
system.cpu.itb.wrAccesses                   335229914                       # TLB accesses on write requests
system.cpu.itb.rdMisses                             0                       # TLB misses on read requests
system.cpu.itb.wrMisses                            36                       # TLB misses on write requests
system.cpu.workload.numSyscalls                     9                       # Number of system calls
system.cpu.pwrStateResidencyTicks::ON    537066208000                       # Cumulative time (in ticks) in various power states
system.cpu.numCycles                       1074132416                       # number of cpu cycles simulated
system.cpu.numWorkItemsStarted                      0                       # number of work items this cpu started
system.cpu.numWorkItemsCompleted                    0                       # number of work items this cpu completed
system.cpu.committedInsts                   249161758                       # Number of instructions committed
system.cpu.committedOps                     406343090                       # Number of ops (including micro ops) committed
system.cpu.num_int_alu_accesses             403870626                       # Number of integer alu accesses
system.cpu.num_fp_alu_accesses                   1975                       # Number of float alu accesses
system.cpu.num_vec_alu_accesses                     0                       # Number of vector alu accesses
system.cpu.num_func_calls                     4727228                       # number of times a function call or return occured
system.cpu.num_conditional_control_insts     23353246                       # number of instructions that are conditional controls
system.cpu.num_int_insts                    403870626                       # number of integer instructions
system.cpu.num_fp_insts                          1975                       # number of float instructions
system.cpu.num_vec_insts                            0                       # number of vector instructions
system.cpu.num_int_register_reads           905631567                       # number of times the integer registers were read
system.cpu.num_int_register_writes          351334408                       # number of times the integer registers were written
system.cpu.num_fp_register_reads                 3787                       # number of times the floating registers were read
system.cpu.num_fp_register_writes                1492                       # number of times the floating registers were written
system.cpu.num_vec_register_reads                   0                       # number of times the vector registers were read
system.cpu.num_vec_register_writes                  0                       # number of times the vector registers were written
system.cpu.num_cc_register_reads            149131753                       # number of times the CC registers were read
system.cpu.num_cc_register_writes           139496773                       # number of times the CC registers were written
system.cpu.num_mem_refs                     149949293                       # number of memory refs
system.cpu.num_load_insts                   118034001                       # Number of load instructions
system.cpu.num_store_insts                   31915292                       # Number of store instructions
system.cpu.num_idle_cycles                          0                       # Number of idle cycles
system.cpu.num_busy_cycles                 1074132416                       # Number of busy cycles
system.cpu.not_idle_fraction                        1                       # Percentage of non-idle cycles
system.cpu.idle_fraction                            0                       # Percentage of idle cycles
system.cpu.Branches                          30316577                       # Number of branches fetched
system.cpu.op_class::No_OpClass                744058      0.18%      0.18% # Class of executed instruction
system.cpu.op_class::IntAlu                 251172933     61.81%     62.00% # Class of executed instruction
system.cpu.op_class::IntMult                        4      0.00%     62.00% # Class of executed instruction
system.cpu.op_class::IntDiv                   4475842      1.10%     63.10% # Class of executed instruction
system.cpu.op_class::FloatAdd                      10      0.00%     63.10% # Class of executed instruction
system.cpu.op_class::FloatCmp                       0      0.00%     63.10% # Class of executed instruction
system.cpu.op_class::FloatCvt                       0      0.00%     63.10% # Class of executed instruction
system.cpu.op_class::FloatMult                      0      0.00%     63.10% # Class of executed instruction
system.cpu.op_class::FloatMultAcc                   0      0.00%     63.10% # Class of executed instruction
system.cpu.op_class::FloatDiv                       0      0.00%     63.10% # Class of executed instruction
system.cpu.op_class::FloatMisc                      0      0.00%     63.10% # Class of executed instruction
system.cpu.op_class::FloatSqrt                      0      0.00%     63.10% # Class of executed instruction
system.cpu.op_class::SimdAdd                      374      0.00%     63.10% # Class of executed instruction
system.cpu.op_class::SimdAddAcc                     0      0.00%     63.10% # Class of executed instruction
system.cpu.op_class::SimdAlu                       68      0.00%     63.10% # Class of executed instruction
system.cpu.op_class::SimdCmp                        0      0.00%     63.10% # Class of executed instruction
system.cpu.op_class::SimdCvt                      108      0.00%     63.10% # Class of executed instruction
system.cpu.op_class::SimdMisc                     214      0.00%     63.10% # Class of executed instruction
system.cpu.op_class::SimdMult                       0      0.00%     63.10% # Class of executed instruction
system.cpu.op_class::SimdMultAcc                    0      0.00%     63.10% # Class of executed instruction
system.cpu.op_class::SimdShift                    186      0.00%     63.10% # Class of executed instruction
system.cpu.op_class::SimdShiftAcc                   0      0.00%     63.10% # Class of executed instruction
system.cpu.op_class::SimdSqrt                       0      0.00%     63.10% # Class of executed instruction
system.cpu.op_class::SimdFloatAdd                   0      0.00%     63.10% # Class of executed instruction
system.cpu.op_class::SimdFloatAlu                   0      0.00%     63.10% # Class of executed instruction
system.cpu.op_class::SimdFloatCmp                   0      0.00%     63.10% # Class of executed instruction
system.cpu.op_class::SimdFloatCvt                   0      0.00%     63.10% # Class of executed instruction
system.cpu.op_class::SimdFloatDiv                   0      0.00%     63.10% # Class of executed instruction
system.cpu.op_class::SimdFloatMisc                  0      0.00%     63.10% # Class of executed instruction
system.cpu.op_class::SimdFloatMult                  0      0.00%     63.10% # Class of executed instruction
system.cpu.op_class::SimdFloatMultAcc               0      0.00%     63.10% # Class of executed instruction
system.cpu.op_class::SimdFloatSqrt                  0      0.00%     63.10% # Class of executed instruction
system.cpu.op_class::MemRead                118033933     29.05%     92.15% # Class of executed instruction
system.cpu.op_class::MemWrite                31914857      7.85%    100.00% # Class of executed instruction
system.cpu.op_class::FloatMemRead                  68      0.00%    100.00% # Class of executed instruction
system.cpu.op_class::FloatMemWrite                435      0.00%    100.00% # Class of executed instruction
system.cpu.op_class::IprAccess                      0      0.00%    100.00% # Class of executed instruction
system.cpu.op_class::InstPrefetch                   0      0.00%    100.00% # Class of executed instruction
system.cpu.op_class::total                  406343090                       # Class of executed instruction
system.cpu.dcache.tags.pwrStateResidencyTicks::UNDEFINED 537066208000                       # Cumulative time (in ticks) in various power states
system.cpu.dcache.tags.tagsinuse           511.630875                       # Cycle average of tags in use
system.cpu.dcache.tags.total_refs           149949299                       # Total number of references to valid blocks.
system.cpu.dcache.tags.sampled_refs            352101                       # Sample count of references to valid blocks.
system.cpu.dcache.tags.avg_refs            425.870131                       # Average number of references to valid blocks.
system.cpu.dcache.tags.warmup_cycle            759000                       # Cycle when the warmup percentage was hit.
system.cpu.dcache.tags.occ_blocks::cpu.data   511.630875                       # Average occupied blocks per requestor
system.cpu.dcache.tags.occ_percent::cpu.data     0.999279                       # Average percentage of cache occupancy
system.cpu.dcache.tags.occ_percent::total     0.999279                       # Average percentage of cache occupancy
system.cpu.dcache.tags.occ_task_id_blocks::1024          512                       # Occupied blocks per task id
system.cpu.dcache.tags.age_task_id_blocks_1024::0           10                       # Occupied blocks per task id
system.cpu.dcache.tags.age_task_id_blocks_1024::1           18                       # Occupied blocks per task id
system.cpu.dcache.tags.age_task_id_blocks_1024::2           56                       # Occupied blocks per task id
system.cpu.dcache.tags.age_task_id_blocks_1024::3          428                       # Occupied blocks per task id
system.cpu.dcache.tags.occ_task_id_percent::1024            1                       # Percentage of cache occupancy per task id
system.cpu.dcache.tags.tag_accesses         300250699                       # Number of tag accesses
system.cpu.dcache.tags.data_accesses        300250699                       # Number of data accesses
system.cpu.dcache.pwrStateResidencyTicks::UNDEFINED 537066208000                       # Cumulative time (in ticks) in various power states
system.cpu.dcache.ReadReq_hits::cpu.data    117715172                       # number of ReadReq hits
system.cpu.dcache.ReadReq_hits::total       117715172                       # number of ReadReq hits
system.cpu.dcache.WriteReq_hits::cpu.data     31777615                       # number of WriteReq hits
system.cpu.dcache.WriteReq_hits::total       31777615                       # number of WriteReq hits
system.cpu.dcache.demand_hits::cpu.data     149492787                       # number of demand (read+write) hits
system.cpu.dcache.demand_hits::total        149492787                       # number of demand (read+write) hits
system.cpu.dcache.overall_hits::cpu.data    149492787                       # number of overall hits
system.cpu.dcache.overall_hits::total       149492787                       # number of overall hits
system.cpu.dcache.ReadReq_misses::cpu.data       318834                       # number of ReadReq misses
system.cpu.dcache.ReadReq_misses::total        318834                       # number of ReadReq misses
system.cpu.dcache.WriteReq_misses::cpu.data       137678                       # number of WriteReq misses
system.cpu.dcache.WriteReq_misses::total       137678                       # number of WriteReq misses
system.cpu.dcache.demand_misses::cpu.data       456512                       # number of demand (read+write) misses
system.cpu.dcache.demand_misses::total         456512                       # number of demand (read+write) misses
system.cpu.dcache.overall_misses::cpu.data       456512                       # number of overall misses
system.cpu.dcache.overall_misses::total        456512                       # number of overall misses
system.cpu.dcache.ReadReq_miss_latency::cpu.data  43426510000                       # number of ReadReq miss cycles
system.cpu.dcache.ReadReq_miss_latency::total  43426510000                       # number of ReadReq miss cycles
system.cpu.dcache.WriteReq_miss_latency::cpu.data   8846367000                       # number of WriteReq miss cycles
system.cpu.dcache.WriteReq_miss_latency::total   8846367000                       # number of WriteReq miss cycles
system.cpu.dcache.demand_miss_latency::cpu.data  52272877000                       # number of demand (read+write) miss cycles
system.cpu.dcache.demand_miss_latency::total  52272877000                       # number of demand (read+write) miss cycles
system.cpu.dcache.overall_miss_latency::cpu.data  52272877000                       # number of overall miss cycles
system.cpu.dcache.overall_miss_latency::total  52272877000                       # number of overall miss cycles
system.cpu.dcache.ReadReq_accesses::cpu.data    118034006                       # number of ReadReq accesses(hits+misses)
system.cpu.dcache.ReadReq_accesses::total    118034006                       # number of ReadReq accesses(hits+misses)
system.cpu.dcache.WriteReq_accesses::cpu.data     31915293                       # number of WriteReq accesses(hits+misses)
system.cpu.dcache.WriteReq_accesses::total     31915293                       # number of WriteReq accesses(hits+misses)
system.cpu.dcache.demand_accesses::cpu.data    149949299                       # number of demand (read+write) accesses
system.cpu.dcache.demand_accesses::total    149949299                       # number of demand (read+write) accesses
system.cpu.dcache.overall_accesses::cpu.data    149949299                       # number of overall (read+write) accesses
system.cpu.dcache.overall_accesses::total    149949299                       # number of overall (read+write) accesses
system.cpu.dcache.ReadReq_miss_rate::cpu.data     0.002701                       # miss rate for ReadReq accesses
system.cpu.dcache.ReadReq_miss_rate::total     0.002701                       # miss rate for ReadReq accesses
system.cpu.dcache.WriteReq_miss_rate::cpu.data     0.004314                       # miss rate for WriteReq accesses
system.cpu.dcache.WriteReq_miss_rate::total     0.004314                       # miss rate for WriteReq accesses
system.cpu.dcache.demand_miss_rate::cpu.data     0.003044                       # miss rate for demand accesses
system.cpu.dcache.demand_miss_rate::total     0.003044                       # miss rate for demand accesses
system.cpu.dcache.overall_miss_rate::cpu.data     0.003044                       # miss rate for overall accesses
system.cpu.dcache.overall_miss_rate::total     0.003044                       # miss rate for overall accesses
system.cpu.dcache.ReadReq_avg_miss_latency::cpu.data 136204.137576                       # average ReadReq miss latency
system.cpu.dcache.ReadReq_avg_miss_latency::total 136204.137576                       # average ReadReq miss latency
system.cpu.dcache.WriteReq_avg_miss_latency::cpu.data 64254.034777                       # average WriteReq miss latency
system.cpu.dcache.WriteReq_avg_miss_latency::total 64254.034777                       # average WriteReq miss latency
system.cpu.dcache.demand_avg_miss_latency::cpu.data 114504.935248                       # average overall miss latency
system.cpu.dcache.demand_avg_miss_latency::total 114504.935248                       # average overall miss latency
system.cpu.dcache.overall_avg_miss_latency::cpu.data 114504.935248                       # average overall miss latency
system.cpu.dcache.overall_avg_miss_latency::total 114504.935248                       # average overall miss latency
system.cpu.dcache.blocked_cycles::no_mshrs            0                       # number of cycles access was blocked
system.cpu.dcache.blocked_cycles::no_targets            0                       # number of cycles access was blocked
system.cpu.dcache.blocked::no_mshrs                 0                       # number of cycles access was blocked
system.cpu.dcache.blocked::no_targets               0                       # number of cycles access was blocked
system.cpu.dcache.avg_blocked_cycles::no_mshrs          nan                       # average number of cycles each access was blocked
system.cpu.dcache.avg_blocked_cycles::no_targets          nan                       # average number of cycles each access was blocked
system.cpu.dcache.writebacks::writebacks       321144                       # number of writebacks
system.cpu.dcache.writebacks::total            321144                       # number of writebacks
system.cpu.dcache.ReadReq_mshr_misses::cpu.data       318834                       # number of ReadReq MSHR misses
system.cpu.dcache.ReadReq_mshr_misses::total       318834                       # number of ReadReq MSHR misses
system.cpu.dcache.WriteReq_mshr_misses::cpu.data       137678                       # number of WriteReq MSHR misses
system.cpu.dcache.WriteReq_mshr_misses::total       137678                       # number of WriteReq MSHR misses
system.cpu.dcache.demand_mshr_misses::cpu.data       456512                       # number of demand (read+write) MSHR misses
system.cpu.dcache.demand_mshr_misses::total       456512                       # number of demand (read+write) MSHR misses
system.cpu.dcache.overall_mshr_misses::cpu.data       456512                       # number of overall MSHR misses
system.cpu.dcache.overall_mshr_misses::total       456512                       # number of overall MSHR misses
system.cpu.dcache.ReadReq_mshr_miss_latency::cpu.data  43107676000                       # number of ReadReq MSHR miss cycles
system.cpu.dcache.ReadReq_mshr_miss_latency::total  43107676000                       # number of ReadReq MSHR miss cycles
system.cpu.dcache.WriteReq_mshr_miss_latency::cpu.data   8708689000                       # number of WriteReq MSHR miss cycles
system.cpu.dcache.WriteReq_mshr_miss_latency::total   8708689000                       # number of WriteReq MSHR miss cycles
system.cpu.dcache.demand_mshr_miss_latency::cpu.data  51816365000                       # number of demand (read+write) MSHR miss cycles
system.cpu.dcache.demand_mshr_miss_latency::total  51816365000                       # number of demand (read+write) MSHR miss cycles
system.cpu.dcache.overall_mshr_miss_latency::cpu.data  51816365000                       # number of overall MSHR miss cycles
system.cpu.dcache.overall_mshr_miss_latency::total  51816365000                       # number of overall MSHR miss cycles
system.cpu.dcache.ReadReq_mshr_miss_rate::cpu.data     0.002701                       # mshr miss rate for ReadReq accesses
system.cpu.dcache.ReadReq_mshr_miss_rate::total     0.002701                       # mshr miss rate for ReadReq accesses
system.cpu.dcache.WriteReq_mshr_miss_rate::cpu.data     0.004314                       # mshr miss rate for WriteReq accesses
system.cpu.dcache.WriteReq_mshr_miss_rate::total     0.004314                       # mshr miss rate for WriteReq accesses
system.cpu.dcache.demand_mshr_miss_rate::cpu.data     0.003044                       # mshr miss rate for demand accesses
system.cpu.dcache.demand_mshr_miss_rate::total     0.003044                       # mshr miss rate for demand accesses
system.cpu.dcache.overall_mshr_miss_rate::cpu.data     0.003044                       # mshr miss rate for overall accesses
system.cpu.dcache.overall_mshr_miss_rate::total     0.003044                       # mshr miss rate for overall accesses
system.cpu.dcache.ReadReq_avg_mshr_miss_latency::cpu.data 135204.137576                       # average ReadReq mshr miss latency
system.cpu.dcache.ReadReq_avg_mshr_miss_latency::total 135204.137576                       # average ReadReq mshr miss latency
system.cpu.dcache.WriteReq_avg_mshr_miss_latency::cpu.data 63254.034777                       # average WriteReq mshr miss latency
system.cpu.dcache.WriteReq_avg_mshr_miss_latency::total 63254.034777                       # average WriteReq mshr miss latency
system.cpu.dcache.demand_avg_mshr_miss_latency::cpu.data 113504.935248                       # average overall mshr miss latency
system.cpu.dcache.demand_avg_mshr_miss_latency::total 113504.935248                       # average overall mshr miss latency
system.cpu.dcache.overall_avg_mshr_miss_latency::cpu.data 113504.935248                       # average overall mshr miss latency
system.cpu.dcache.overall_avg_mshr_miss_latency::total 113504.935248                       # average overall mshr miss latency
system.cpu.dcache.replacements                 351589                       # number of replacements
system.cpu.dtb_walker_cache.tags.pwrStateResidencyTicks::UNDEFINED 537066208000                       # Cumulative time (in ticks) in various power states
system.cpu.dtb_walker_cache.tags.tagsinuse            0                       # Cycle average of tags in use
system.cpu.dtb_walker_cache.tags.total_refs            0                       # Total number of references to valid blocks.
system.cpu.dtb_walker_cache.tags.sampled_refs            0                       # Sample count of references to valid blocks.
system.cpu.dtb_walker_cache.tags.avg_refs          nan                       # Average number of references to valid blocks.
system.cpu.dtb_walker_cache.tags.warmup_cycle            0                       # Cycle when the warmup percentage was hit.
system.cpu.dtb_walker_cache.tags.tag_accesses            0                       # Number of tag accesses
system.cpu.dtb_walker_cache.tags.data_accesses            0                       # Number of data accesses
system.cpu.dtb_walker_cache.pwrStateResidencyTicks::UNDEFINED 537066208000                       # Cumulative time (in ticks) in various power states
system.cpu.dtb_walker_cache.blocked_cycles::no_mshrs            0                       # number of cycles access was blocked
system.cpu.dtb_walker_cache.blocked_cycles::no_targets            0                       # number of cycles access was blocked
system.cpu.dtb_walker_cache.blocked::no_mshrs            0                       # number of cycles access was blocked
system.cpu.dtb_walker_cache.blocked::no_targets            0                       # number of cycles access was blocked
system.cpu.dtb_walker_cache.avg_blocked_cycles::no_mshrs          nan                       # average number of cycles each access was blocked
system.cpu.dtb_walker_cache.avg_blocked_cycles::no_targets          nan                       # average number of cycles each access was blocked
system.cpu.dtb_walker_cache.replacements            0                       # number of replacements
system.cpu.icache.tags.pwrStateResidencyTicks::UNDEFINED 537066208000                       # Cumulative time (in ticks) in various power states
system.cpu.icache.tags.tagsinuse           280.465836                       # Cycle average of tags in use
system.cpu.icache.tags.total_refs           335229914                       # Total number of references to valid blocks.
system.cpu.icache.tags.sampled_refs               355                       # Sample count of references to valid blocks.
system.cpu.icache.tags.avg_refs          944309.616901                       # Average number of references to valid blocks.
system.cpu.icache.tags.warmup_cycle            439000                       # Cycle when the warmup percentage was hit.
system.cpu.icache.tags.occ_blocks::cpu.inst   280.465836                       # Average occupied blocks per requestor
system.cpu.icache.tags.occ_percent::cpu.inst     0.547785                       # Average percentage of cache occupancy
system.cpu.icache.tags.occ_percent::total     0.547785                       # Average percentage of cache occupancy
system.cpu.icache.tags.occ_task_id_blocks::1024          309                       # Occupied blocks per task id
system.cpu.icache.tags.age_task_id_blocks_1024::0           15                       # Occupied blocks per task id
system.cpu.icache.tags.age_task_id_blocks_1024::1           23                       # Occupied blocks per task id
system.cpu.icache.tags.age_task_id_blocks_1024::4          271                       # Occupied blocks per task id
system.cpu.icache.tags.occ_task_id_percent::1024     0.603516                       # Percentage of cache occupancy per task id
system.cpu.icache.tags.tag_accesses         670460183                       # Number of tag accesses
system.cpu.icache.tags.data_accesses        670460183                       # Number of data accesses
system.cpu.icache.pwrStateResidencyTicks::UNDEFINED 537066208000                       # Cumulative time (in ticks) in various power states
system.cpu.icache.ReadReq_hits::cpu.inst    335229559                       # number of ReadReq hits
system.cpu.icache.ReadReq_hits::total       335229559                       # number of ReadReq hits
system.cpu.icache.demand_hits::cpu.inst     335229559                       # number of demand (read+write) hits
system.cpu.icache.demand_hits::total        335229559                       # number of demand (read+write) hits
system.cpu.icache.overall_hits::cpu.inst    335229559                       # number of overall hits
system.cpu.icache.overall_hits::total       335229559                       # number of overall hits
system.cpu.icache.ReadReq_misses::cpu.inst          355                       # number of ReadReq misses
system.cpu.icache.ReadReq_misses::total           355                       # number of ReadReq misses
system.cpu.icache.demand_misses::cpu.inst          355                       # number of demand (read+write) misses
system.cpu.icache.demand_misses::total            355                       # number of demand (read+write) misses
system.cpu.icache.overall_misses::cpu.inst          355                       # number of overall misses
system.cpu.icache.overall_misses::total           355                       # number of overall misses
system.cpu.icache.ReadReq_miss_latency::cpu.inst     70990000                       # number of ReadReq miss cycles
system.cpu.icache.ReadReq_miss_latency::total     70990000                       # number of ReadReq miss cycles
system.cpu.icache.demand_miss_latency::cpu.inst     70990000                       # number of demand (read+write) miss cycles
system.cpu.icache.demand_miss_latency::total     70990000                       # number of demand (read+write) miss cycles
system.cpu.icache.overall_miss_latency::cpu.inst     70990000                       # number of overall miss cycles
system.cpu.icache.overall_miss_latency::total     70990000                       # number of overall miss cycles
system.cpu.icache.ReadReq_accesses::cpu.inst    335229914                       # number of ReadReq accesses(hits+misses)
system.cpu.icache.ReadReq_accesses::total    335229914                       # number of ReadReq accesses(hits+misses)
system.cpu.icache.demand_accesses::cpu.inst    335229914                       # number of demand (read+write) accesses
system.cpu.icache.demand_accesses::total    335229914                       # number of demand (read+write) accesses
system.cpu.icache.overall_accesses::cpu.inst    335229914                       # number of overall (read+write) accesses
system.cpu.icache.overall_accesses::total    335229914                       # number of overall (read+write) accesses
system.cpu.icache.ReadReq_miss_rate::cpu.inst     0.000001                       # miss rate for ReadReq accesses
system.cpu.icache.ReadReq_miss_rate::total     0.000001                       # miss rate for ReadReq accesses
system.cpu.icache.demand_miss_rate::cpu.inst     0.000001                       # miss rate for demand accesses
system.cpu.icache.demand_miss_rate::total     0.000001                       # miss rate for demand accesses
system.cpu.icache.overall_miss_rate::cpu.inst     0.000001                       # miss rate for overall accesses
system.cpu.icache.overall_miss_rate::total     0.000001                       # miss rate for overall accesses
system.cpu.icache.ReadReq_avg_miss_latency::cpu.inst 199971.830986                       # average ReadReq miss latency
system.cpu.icache.ReadReq_avg_miss_latency::total 199971.830986                       # average ReadReq miss latency
system.cpu.icache.demand_avg_miss_latency::cpu.inst 199971.830986                       # average overall miss latency
system.cpu.icache.demand_avg_miss_latency::total 199971.830986                       # average overall miss latency
system.cpu.icache.overall_avg_miss_latency::cpu.inst 199971.830986                       # average overall miss latency
system.cpu.icache.overall_avg_miss_latency::total 199971.830986                       # average overall miss latency
system.cpu.icache.blocked_cycles::no_mshrs            0                       # number of cycles access was blocked
system.cpu.icache.blocked_cycles::no_targets            0                       # number of cycles access was blocked
system.cpu.icache.blocked::no_mshrs                 0                       # number of cycles access was blocked
system.cpu.icache.blocked::no_targets               0                       # number of cycles access was blocked
system.cpu.icache.avg_blocked_cycles::no_mshrs          nan                       # average number of cycles each access was blocked
system.cpu.icache.avg_blocked_cycles::no_targets          nan                       # average number of cycles each access was blocked
system.cpu.icache.writebacks::writebacks           46                       # number of writebacks
system.cpu.icache.writebacks::total                46                       # number of writebacks
system.cpu.icache.ReadReq_mshr_misses::cpu.inst          355                       # number of ReadReq MSHR misses
system.cpu.icache.ReadReq_mshr_misses::total          355                       # number of ReadReq MSHR misses
system.cpu.icache.demand_mshr_misses::cpu.inst          355                       # number of demand (read+write) MSHR misses
system.cpu.icache.demand_mshr_misses::total          355                       # number of demand (read+write) MSHR misses
system.cpu.icache.overall_mshr_misses::cpu.inst          355                       # number of overall MSHR misses
system.cpu.icache.overall_mshr_misses::total          355                       # number of overall MSHR misses
system.cpu.icache.ReadReq_mshr_miss_latency::cpu.inst     70635000                       # number of ReadReq MSHR miss cycles
system.cpu.icache.ReadReq_mshr_miss_latency::total     70635000                       # number of ReadReq MSHR miss cycles
system.cpu.icache.demand_mshr_miss_latency::cpu.inst     70635000                       # number of demand (read+write) MSHR miss cycles
system.cpu.icache.demand_mshr_miss_latency::total     70635000                       # number of demand (read+write) MSHR miss cycles
system.cpu.icache.overall_mshr_miss_latency::cpu.inst     70635000                       # number of overall MSHR miss cycles
system.cpu.icache.overall_mshr_miss_latency::total     70635000                       # number of overall MSHR miss cycles
system.cpu.icache.ReadReq_mshr_miss_rate::cpu.inst     0.000001                       # mshr miss rate for ReadReq accesses
system.cpu.icache.ReadReq_mshr_miss_rate::total     0.000001                       # mshr miss rate for ReadReq accesses
system.cpu.icache.demand_mshr_miss_rate::cpu.inst     0.000001                       # mshr miss rate for demand accesses
system.cpu.icache.demand_mshr_miss_rate::total     0.000001                       # mshr miss rate for demand accesses
system.cpu.icache.overall_mshr_miss_rate::cpu.inst     0.000001                       # mshr miss rate for overall accesses
system.cpu.icache.overall_mshr_miss_rate::total     0.000001                       # mshr miss rate for overall accesses
system.cpu.icache.ReadReq_avg_mshr_miss_latency::cpu.inst 198971.830986                       # average ReadReq mshr miss latency
system.cpu.icache.ReadReq_avg_mshr_miss_latency::total 198971.830986                       # average ReadReq mshr miss latency
system.cpu.icache.demand_avg_mshr_miss_latency::cpu.inst 198971.830986                       # average overall mshr miss latency
system.cpu.icache.demand_avg_mshr_miss_latency::total 198971.830986                       # average overall mshr miss latency
system.cpu.icache.overall_avg_mshr_miss_latency::cpu.inst 198971.830986                       # average overall mshr miss latency
system.cpu.icache.overall_avg_mshr_miss_latency::total 198971.830986                       # average overall mshr miss latency
system.cpu.icache.replacements                     46                       # number of replacements
system.cpu.itb_walker_cache.tags.pwrStateResidencyTicks::UNDEFINED 537066208000                       # Cumulative time (in ticks) in various power states
system.cpu.itb_walker_cache.tags.tagsinuse            0                       # Cycle average of tags in use
system.cpu.itb_walker_cache.tags.total_refs            0                       # Total number of references to valid blocks.
system.cpu.itb_walker_cache.tags.sampled_refs            0                       # Sample count of references to valid blocks.
system.cpu.itb_walker_cache.tags.avg_refs          nan                       # Average number of references to valid blocks.
system.cpu.itb_walker_cache.tags.warmup_cycle            0                       # Cycle when the warmup percentage was hit.
system.cpu.itb_walker_cache.tags.tag_accesses            0                       # Number of tag accesses
system.cpu.itb_walker_cache.tags.data_accesses            0                       # Number of data accesses
system.cpu.itb_walker_cache.pwrStateResidencyTicks::UNDEFINED 537066208000                       # Cumulative time (in ticks) in various power states
system.cpu.itb_walker_cache.blocked_cycles::no_mshrs            0                       # number of cycles access was blocked
system.cpu.itb_walker_cache.blocked_cycles::no_targets            0                       # number of cycles access was blocked
system.cpu.itb_walker_cache.blocked::no_mshrs            0                       # number of cycles access was blocked
system.cpu.itb_walker_cache.blocked::no_targets            0                       # number of cycles access was blocked
system.cpu.itb_walker_cache.avg_blocked_cycles::no_mshrs          nan                       # average number of cycles each access was blocked
system.cpu.itb_walker_cache.avg_blocked_cycles::no_targets          nan                       # average number of cycles each access was blocked
system.cpu.itb_walker_cache.replacements            0                       # number of replacements
system.l2.tags.pwrStateResidencyTicks::UNDEFINED 537066208000                       # Cumulative time (in ticks) in various power states
system.l2.tags.tagsinuse                  2043.077066                       # Cycle average of tags in use
system.l2.tags.total_refs                      808502                       # Total number of references to valid blocks.
system.l2.tags.sampled_refs                    248829                       # Sample count of references to valid blocks.
system.l2.tags.avg_refs                      3.249227                       # Average number of references to valid blocks.
system.l2.tags.warmup_cycle                    428500                       # Cycle when the warmup percentage was hit.
system.l2.tags.occ_blocks::writebacks        0.942699                       # Average occupied blocks per requestor
system.l2.tags.occ_blocks::cpu.inst          1.900266                       # Average occupied blocks per requestor
system.l2.tags.occ_blocks::cpu.data       2040.234101                       # Average occupied blocks per requestor
system.l2.tags.occ_percent::writebacks       0.000460                       # Average percentage of cache occupancy
system.l2.tags.occ_percent::cpu.inst         0.000928                       # Average percentage of cache occupancy
system.l2.tags.occ_percent::cpu.data         0.996208                       # Average percentage of cache occupancy
system.l2.tags.occ_percent::total            0.997596                       # Average percentage of cache occupancy
system.l2.tags.occ_task_id_blocks::1024          2048                       # Occupied blocks per task id
system.l2.tags.age_task_id_blocks_1024::0           30                       # Occupied blocks per task id
system.l2.tags.age_task_id_blocks_1024::1           46                       # Occupied blocks per task id
system.l2.tags.age_task_id_blocks_1024::3           51                       # Occupied blocks per task id
system.l2.tags.age_task_id_blocks_1024::4         1921                       # Occupied blocks per task id
system.l2.tags.occ_task_id_percent::1024            1                       # Percentage of cache occupancy per task id
system.l2.tags.tag_accesses                   6716845                       # Number of tag accesses
system.l2.tags.data_accesses                  6716845                       # Number of data accesses
system.l2.pwrStateResidencyTicks::UNDEFINED 537066208000                       # Cumulative time (in ticks) in various power states
system.l2.WritebackDirty_hits::writebacks       321144                       # number of WritebackDirty hits
system.l2.WritebackDirty_hits::total           321144                       # number of WritebackDirty hits
system.l2.WritebackClean_hits::writebacks           46                       # number of WritebackClean hits
system.l2.WritebackClean_hits::total               46                       # number of WritebackClean hits
system.l2.UpgradeReq_hits::cpu.data            104411                       # number of UpgradeReq hits
system.l2.UpgradeReq_hits::total               104411                       # number of UpgradeReq hits
system.l2.ReadExReq_hits::cpu.data               1453                       # number of ReadExReq hits
system.l2.ReadExReq_hits::total                  1453                       # number of ReadExReq hits
system.l2.ReadSharedReq_hits::cpu.data         102232                       # number of ReadSharedReq hits
system.l2.ReadSharedReq_hits::total            102232                       # number of ReadSharedReq hits
system.l2.demand_hits::cpu.data                103685                       # number of demand (read+write) hits
system.l2.demand_hits::total                   103685                       # number of demand (read+write) hits
system.l2.overall_hits::cpu.data               103685                       # number of overall hits
system.l2.overall_hits::total                  103685                       # number of overall hits
system.l2.ReadExReq_misses::cpu.data            31814                       # number of ReadExReq misses
system.l2.ReadExReq_misses::total               31814                       # number of ReadExReq misses
system.l2.ReadCleanReq_misses::cpu.inst           355                       # number of ReadCleanReq misses
system.l2.ReadCleanReq_misses::total              355                       # number of ReadCleanReq misses
system.l2.ReadSharedReq_misses::cpu.data       216602                       # number of ReadSharedReq misses
system.l2.ReadSharedReq_misses::total          216602                       # number of ReadSharedReq misses
system.l2.demand_misses::cpu.inst                 355                       # number of demand (read+write) misses
system.l2.demand_misses::cpu.data              248416                       # number of demand (read+write) misses
system.l2.demand_misses::total                 248771                       # number of demand (read+write) misses
system.l2.overall_misses::cpu.inst                355                       # number of overall misses
system.l2.overall_misses::cpu.data             248416                       # number of overall misses
system.l2.overall_misses::total                248771                       # number of overall misses
system.l2.ReadExReq_miss_latency::cpu.data   7390600000                       # number of ReadExReq miss cycles
system.l2.ReadExReq_miss_latency::total    7390600000                       # number of ReadExReq miss cycles
system.l2.ReadCleanReq_miss_latency::cpu.inst     70101000                       # number of ReadCleanReq miss cycles
system.l2.ReadCleanReq_miss_latency::total     70101000                       # number of ReadCleanReq miss cycles
system.l2.ReadSharedReq_miss_latency::cpu.data  41555988500                       # number of ReadSharedReq miss cycles
system.l2.ReadSharedReq_miss_latency::total  41555988500                       # number of ReadSharedReq miss cycles
system.l2.demand_miss_latency::cpu.inst      70101000                       # number of demand (read+write) miss cycles
system.l2.demand_miss_latency::cpu.data   48946588500                       # number of demand (read+write) miss cycles
system.l2.demand_miss_latency::total      49016689500                       # number of demand (read+write) miss cycles
system.l2.overall_miss_latency::cpu.inst     70101000                       # number of overall miss cycles
system.l2.overall_miss_latency::cpu.data  48946588500                       # number of overall miss cycles
system.l2.overall_miss_latency::total     49016689500                       # number of overall miss cycles
system.l2.WritebackDirty_accesses::writebacks       321144                       # number of WritebackDirty accesses(hits+misses)
system.l2.WritebackDirty_accesses::total       321144                       # number of WritebackDirty accesses(hits+misses)
system.l2.WritebackClean_accesses::writebacks           46                       # number of WritebackClean accesses(hits+misses)
system.l2.WritebackClean_accesses::total           46                       # number of WritebackClean accesses(hits+misses)
system.l2.UpgradeReq_accesses::cpu.data        104411                       # number of UpgradeReq accesses(hits+misses)
system.l2.UpgradeReq_accesses::total           104411                       # number of UpgradeReq accesses(hits+misses)
system.l2.ReadExReq_accesses::cpu.data          33267                       # number of ReadExReq accesses(hits+misses)
system.l2.ReadExReq_accesses::total             33267                       # number of ReadExReq accesses(hits+misses)
system.l2.ReadCleanReq_accesses::cpu.inst          355                       # number of ReadCleanReq accesses(hits+misses)
system.l2.ReadCleanReq_accesses::total            355                       # number of ReadCleanReq accesses(hits+misses)
system.l2.ReadSharedReq_accesses::cpu.data       318834                       # number of ReadSharedReq accesses(hits+misses)
system.l2.ReadSharedReq_accesses::total        318834                       # number of ReadSharedReq accesses(hits+misses)
system.l2.demand_accesses::cpu.inst               355                       # number of demand (read+write) accesses
system.l2.demand_accesses::cpu.data            352101                       # number of demand (read+write) accesses
system.l2.demand_accesses::total               352456                       # number of demand (read+write) accesses
system.l2.overall_accesses::cpu.inst              355                       # number of overall (read+write) accesses
system.l2.overall_accesses::cpu.data           352101                       # number of overall (read+write) accesses
system.l2.overall_accesses::total              352456                       # number of overall (read+write) accesses
system.l2.ReadExReq_miss_rate::cpu.data      0.956323                       # miss rate for ReadExReq accesses
system.l2.ReadExReq_miss_rate::total         0.956323                       # miss rate for ReadExReq accesses
system.l2.ReadCleanReq_miss_rate::cpu.inst            1                       # miss rate for ReadCleanReq accesses
system.l2.ReadCleanReq_miss_rate::total             1                       # miss rate for ReadCleanReq accesses
system.l2.ReadSharedReq_miss_rate::cpu.data     0.679357                       # miss rate for ReadSharedReq accesses
system.l2.ReadSharedReq_miss_rate::total     0.679357                       # miss rate for ReadSharedReq accesses
system.l2.demand_miss_rate::cpu.inst                1                       # miss rate for demand accesses
system.l2.demand_miss_rate::cpu.data         0.705525                       # miss rate for demand accesses
system.l2.demand_miss_rate::total            0.705821                       # miss rate for demand accesses
system.l2.overall_miss_rate::cpu.inst               1                       # miss rate for overall accesses
system.l2.overall_miss_rate::cpu.data        0.705525                       # miss rate for overall accesses
system.l2.overall_miss_rate::total           0.705821                       # miss rate for overall accesses
system.l2.ReadExReq_avg_miss_latency::cpu.data 232306.531716                       # average ReadExReq miss latency
system.l2.ReadExReq_avg_miss_latency::total 232306.531716                       # average ReadExReq miss latency
system.l2.ReadCleanReq_avg_miss_latency::cpu.inst 197467.605634                       # average ReadCleanReq miss latency
system.l2.ReadCleanReq_avg_miss_latency::total 197467.605634                       # average ReadCleanReq miss latency
system.l2.ReadSharedReq_avg_miss_latency::cpu.data 191854.131079                       # average ReadSharedReq miss latency
system.l2.ReadSharedReq_avg_miss_latency::total 191854.131079                       # average ReadSharedReq miss latency
system.l2.demand_avg_miss_latency::cpu.inst 197467.605634                       # average overall miss latency
system.l2.demand_avg_miss_latency::cpu.data 197034.766279                       # average overall miss latency
system.l2.demand_avg_miss_latency::total 197035.383947                       # average overall miss latency
system.l2.overall_avg_miss_latency::cpu.inst 197467.605634                       # average overall miss latency
system.l2.overall_avg_miss_latency::cpu.data 197034.766279                       # average overall miss latency
system.l2.overall_avg_miss_latency::total 197035.383947                       # average overall miss latency
system.l2.blocked_cycles::no_mshrs                  0                       # number of cycles access was blocked
system.l2.blocked_cycles::no_targets                0                       # number of cycles access was blocked
system.l2.blocked::no_mshrs                         0                       # number of cycles access was blocked
system.l2.blocked::no_targets                       0                       # number of cycles access was blocked
system.l2.avg_blocked_cycles::no_mshrs            nan                       # average number of cycles each access was blocked
system.l2.avg_blocked_cycles::no_targets          nan                       # average number of cycles each access was blocked
system.l2.writebacks::writebacks               235433                       # number of writebacks
system.l2.writebacks::total                    235433                       # number of writebacks
system.l2.ReadExReq_mshr_misses::cpu.data        31814                       # number of ReadExReq MSHR misses
system.l2.ReadExReq_mshr_misses::total          31814                       # number of ReadExReq MSHR misses
system.l2.ReadCleanReq_mshr_misses::cpu.inst          355                       # number of ReadCleanReq MSHR misses
system.l2.ReadCleanReq_mshr_misses::total          355                       # number of ReadCleanReq MSHR misses
system.l2.ReadSharedReq_mshr_misses::cpu.data       216602                       # number of ReadSharedReq MSHR misses
system.l2.ReadSharedReq_mshr_misses::total       216602                       # number of ReadSharedReq MSHR misses
system.l2.demand_mshr_misses::cpu.inst            355                       # number of demand (read+write) MSHR misses
system.l2.demand_mshr_misses::cpu.data         248416                       # number of demand (read+write) MSHR misses
system.l2.demand_mshr_misses::total            248771                       # number of demand (read+write) MSHR misses
system.l2.overall_mshr_misses::cpu.inst           355                       # number of overall MSHR misses
system.l2.overall_mshr_misses::cpu.data        248416                       # number of overall MSHR misses
system.l2.overall_mshr_misses::total           248771                       # number of overall MSHR misses
system.l2.ReadExReq_mshr_miss_latency::cpu.data   7072460000                       # number of ReadExReq MSHR miss cycles
system.l2.ReadExReq_mshr_miss_latency::total   7072460000                       # number of ReadExReq MSHR miss cycles
system.l2.ReadCleanReq_mshr_miss_latency::cpu.inst     66551000                       # number of ReadCleanReq MSHR miss cycles
system.l2.ReadCleanReq_mshr_miss_latency::total     66551000                       # number of ReadCleanReq MSHR miss cycles
system.l2.ReadSharedReq_mshr_miss_latency::cpu.data  39389968500                       # number of ReadSharedReq MSHR miss cycles
system.l2.ReadSharedReq_mshr_miss_latency::total  39389968500                       # number of ReadSharedReq MSHR miss cycles
system.l2.demand_mshr_miss_latency::cpu.inst     66551000                       # number of demand (read+write) MSHR miss cycles
system.l2.demand_mshr_miss_latency::cpu.data  46462428500                       # number of demand (read+write) MSHR miss cycles
system.l2.demand_mshr_miss_latency::total  46528979500                       # number of demand (read+write) MSHR miss cycles
system.l2.overall_mshr_miss_latency::cpu.inst     66551000                       # number of overall MSHR miss cycles
system.l2.overall_mshr_miss_latency::cpu.data  46462428500                       # number of overall MSHR miss cycles
system.l2.overall_mshr_miss_latency::total  46528979500                       # number of overall MSHR miss cycles
system.l2.ReadExReq_mshr_miss_rate::cpu.data     0.956323                       # mshr miss rate for ReadExReq accesses
system.l2.ReadExReq_mshr_miss_rate::total     0.956323                       # mshr miss rate for ReadExReq accesses
system.l2.ReadCleanReq_mshr_miss_rate::cpu.inst            1                       # mshr miss rate for ReadCleanReq accesses
system.l2.ReadCleanReq_mshr_miss_rate::total            1                       # mshr miss rate for ReadCleanReq accesses
system.l2.ReadSharedReq_mshr_miss_rate::cpu.data     0.679357                       # mshr miss rate for ReadSharedReq accesses
system.l2.ReadSharedReq_mshr_miss_rate::total     0.679357                       # mshr miss rate for ReadSharedReq accesses
system.l2.demand_mshr_miss_rate::cpu.inst            1                       # mshr miss rate for demand accesses
system.l2.demand_mshr_miss_rate::cpu.data     0.705525                       # mshr miss rate for demand accesses
system.l2.demand_mshr_miss_rate::total       0.705821                       # mshr miss rate for demand accesses
system.l2.overall_mshr_miss_rate::cpu.inst            1                       # mshr miss rate for overall accesses
system.l2.overall_mshr_miss_rate::cpu.data     0.705525                       # mshr miss rate for overall accesses
system.l2.overall_mshr_miss_rate::total      0.705821                       # mshr miss rate for overall accesses
system.l2.ReadExReq_avg_mshr_miss_latency::cpu.data 222306.531716                       # average ReadExReq mshr miss latency
system.l2.ReadExReq_avg_mshr_miss_latency::total 222306.531716                       # average ReadExReq mshr miss latency
system.l2.ReadCleanReq_avg_mshr_miss_latency::cpu.inst 187467.605634                       # average ReadCleanReq mshr miss latency
system.l2.ReadCleanReq_avg_mshr_miss_latency::total 187467.605634                       # average ReadCleanReq mshr miss latency
system.l2.ReadSharedReq_avg_mshr_miss_latency::cpu.data 181854.131079                       # average ReadSharedReq mshr miss latency
system.l2.ReadSharedReq_avg_mshr_miss_latency::total 181854.131079                       # average ReadSharedReq mshr miss latency
system.l2.demand_avg_mshr_miss_latency::cpu.inst 187467.605634                       # average overall mshr miss latency
system.l2.demand_avg_mshr_miss_latency::cpu.data 187034.766279                       # average overall mshr miss latency
system.l2.demand_avg_mshr_miss_latency::total 187035.383947                       # average overall mshr miss latency
system.l2.overall_avg_mshr_miss_latency::cpu.inst 187467.605634                       # average overall mshr miss latency
system.l2.overall_avg_mshr_miss_latency::cpu.data 187034.766279                       # average overall mshr miss latency
system.l2.overall_avg_mshr_miss_latency::total 187035.383947                       # average overall mshr miss latency
system.l2.replacements                         246781                       # number of replacements
system.l3.tags.pwrStateResidencyTicks::UNDEFINED 537066208000                       # Cumulative time (in ticks) in various power states
system.l3.tags.tagsinuse                 15899.225173                       # Cycle average of tags in use
system.l3.tags.total_refs                      494390                       # Total number of references to valid blocks.
system.l3.tags.sampled_refs                    129576                       # Sample count of references to valid blocks.
system.l3.tags.avg_refs                      3.815444                       # Average number of references to valid blocks.
system.l3.tags.warmup_cycle                    418000                       # Cycle when the warmup percentage was hit.
system.l3.tags.occ_blocks::writebacks      765.635889                       # Average occupied blocks per requestor
system.l3.tags.occ_blocks::cpu.inst         15.183269                       # Average occupied blocks per requestor
system.l3.tags.occ_blocks::cpu.data      15118.406015                       # Average occupied blocks per requestor
system.l3.tags.occ_percent::writebacks       0.046731                       # Average percentage of cache occupancy
system.l3.tags.occ_percent::cpu.inst         0.000927                       # Average percentage of cache occupancy
system.l3.tags.occ_percent::cpu.data         0.922754                       # Average percentage of cache occupancy
system.l3.tags.occ_percent::total            0.970412                       # Average percentage of cache occupancy
system.l3.tags.occ_task_id_blocks::1024         16384                       # Occupied blocks per task id
system.l3.tags.age_task_id_blocks_1024::0           25                       # Occupied blocks per task id
system.l3.tags.age_task_id_blocks_1024::1           39                       # Occupied blocks per task id
system.l3.tags.age_task_id_blocks_1024::4        16320                       # Occupied blocks per task id
system.l3.tags.occ_task_id_percent::1024            1                       # Percentage of cache occupancy per task id
system.l3.tags.tag_accesses                   1120022                       # Number of tag accesses
system.l3.tags.data_accesses                  1120022                       # Number of data accesses
system.l3.pwrStateResidencyTicks::UNDEFINED 537066208000                       # Cumulative time (in ticks) in various power states
system.l3.WritebackDirty_hits::writebacks       235433                       # number of WritebackDirty hits
system.l3.WritebackDirty_hits::total           235433                       # number of WritebackDirty hits
system.l3.ReadExReq_hits::cpu.data                399                       # number of ReadExReq hits
system.l3.ReadExReq_hits::total                   399                       # number of ReadExReq hits
system.l3.ReadSharedReq_hits::cpu.data         128209                       # number of ReadSharedReq hits
system.l3.ReadSharedReq_hits::total            128209                       # number of ReadSharedReq hits
system.l3.demand_hits::cpu.data                128608                       # number of demand (read+write) hits
system.l3.demand_hits::total                   128608                       # number of demand (read+write) hits
system.l3.overall_hits::cpu.data               128608                       # number of overall hits
system.l3.overall_hits::total                  128608                       # number of overall hits
system.l3.ReadExReq_misses::cpu.data            31415                       # number of ReadExReq misses
system.l3.ReadExReq_misses::total               31415                       # number of ReadExReq misses
system.l3.ReadSharedReq_misses::cpu.inst          355                       # number of ReadSharedReq misses
system.l3.ReadSharedReq_misses::cpu.data        88393                       # number of ReadSharedReq misses
system.l3.ReadSharedReq_misses::total           88748                       # number of ReadSharedReq misses
system.l3.demand_misses::cpu.inst                 355                       # number of demand (read+write) misses
system.l3.demand_misses::cpu.data              119808                       # number of demand (read+write) misses
system.l3.demand_misses::total                 120163                       # number of demand (read+write) misses
system.l3.overall_misses::cpu.inst                355                       # number of overall misses
system.l3.overall_misses::cpu.data             119808                       # number of overall misses
system.l3.overall_misses::total                120163                       # number of overall misses
system.l3.ReadExReq_miss_latency::cpu.data   6718316500                       # number of ReadExReq miss cycles
system.l3.ReadExReq_miss_latency::total    6718316500                       # number of ReadExReq miss cycles
system.l3.ReadSharedReq_miss_latency::cpu.inst     62646000                       # number of ReadSharedReq miss cycles
system.l3.ReadSharedReq_miss_latency::cpu.data  35639764999                       # number of ReadSharedReq miss cycles
system.l3.ReadSharedReq_miss_latency::total  35702410999                       # number of ReadSharedReq miss cycles
system.l3.demand_miss_latency::cpu.inst      62646000                       # number of demand (read+write) miss cycles
system.l3.demand_miss_latency::cpu.data   42358081499                       # number of demand (read+write) miss cycles
system.l3.demand_miss_latency::total      42420727499                       # number of demand (read+write) miss cycles
system.l3.overall_miss_latency::cpu.inst     62646000                       # number of overall miss cycles
system.l3.overall_miss_latency::cpu.data  42358081499                       # number of overall miss cycles
system.l3.overall_miss_latency::total     42420727499                       # number of overall miss cycles
system.l3.WritebackDirty_accesses::writebacks       235433                       # number of WritebackDirty accesses(hits+misses)
system.l3.WritebackDirty_accesses::total       235433                       # number of WritebackDirty accesses(hits+misses)
system.l3.ReadExReq_accesses::cpu.data          31814                       # number of ReadExReq accesses(hits+misses)
system.l3.ReadExReq_accesses::total             31814                       # number of ReadExReq accesses(hits+misses)
system.l3.ReadSharedReq_accesses::cpu.inst          355                       # number of ReadSharedReq accesses(hits+misses)
system.l3.ReadSharedReq_accesses::cpu.data       216602                       # number of ReadSharedReq accesses(hits+misses)
system.l3.ReadSharedReq_accesses::total        216957                       # number of ReadSharedReq accesses(hits+misses)
system.l3.demand_accesses::cpu.inst               355                       # number of demand (read+write) accesses
system.l3.demand_accesses::cpu.data            248416                       # number of demand (read+write) accesses
system.l3.demand_accesses::total               248771                       # number of demand (read+write) accesses
system.l3.overall_accesses::cpu.inst              355                       # number of overall (read+write) accesses
system.l3.overall_accesses::cpu.data           248416                       # number of overall (read+write) accesses
system.l3.overall_accesses::total              248771                       # number of overall (read+write) accesses
system.l3.ReadExReq_miss_rate::cpu.data      0.987458                       # miss rate for ReadExReq accesses
system.l3.ReadExReq_miss_rate::total         0.987458                       # miss rate for ReadExReq accesses
system.l3.ReadSharedReq_miss_rate::cpu.inst            1                       # miss rate for ReadSharedReq accesses
system.l3.ReadSharedReq_miss_rate::cpu.data     0.408089                       # miss rate for ReadSharedReq accesses
system.l3.ReadSharedReq_miss_rate::total     0.409058                       # miss rate for ReadSharedReq accesses
system.l3.demand_miss_rate::cpu.inst                1                       # miss rate for demand accesses
system.l3.demand_miss_rate::cpu.data         0.482288                       # miss rate for demand accesses
system.l3.demand_miss_rate::total            0.483027                       # miss rate for demand accesses
system.l3.overall_miss_rate::cpu.inst               1                       # miss rate for overall accesses
system.l3.overall_miss_rate::cpu.data        0.482288                       # miss rate for overall accesses
system.l3.overall_miss_rate::total           0.483027                       # miss rate for overall accesses
system.l3.ReadExReq_avg_miss_latency::cpu.data 213856.963234                       # average ReadExReq miss latency
system.l3.ReadExReq_avg_miss_latency::total 213856.963234                       # average ReadExReq miss latency
system.l3.ReadSharedReq_avg_miss_latency::cpu.inst 176467.605634                       # average ReadSharedReq miss latency
system.l3.ReadSharedReq_avg_miss_latency::cpu.data 403196.689772                       # average ReadSharedReq miss latency
system.l3.ReadSharedReq_avg_miss_latency::total 402289.752997                       # average ReadSharedReq miss latency
system.l3.demand_avg_miss_latency::cpu.inst 176467.605634                       # average overall miss latency
system.l3.demand_avg_miss_latency::cpu.data 353549.691999                       # average overall miss latency
system.l3.demand_avg_miss_latency::total 353026.534782                       # average overall miss latency
system.l3.overall_avg_miss_latency::cpu.inst 176467.605634                       # average overall miss latency
system.l3.overall_avg_miss_latency::cpu.data 353549.691999                       # average overall miss latency
system.l3.overall_avg_miss_latency::total 353026.534782                       # average overall miss latency
system.l3.blocked_cycles::no_mshrs                  0                       # number of cycles access was blocked
system.l3.blocked_cycles::no_targets                0                       # number of cycles access was blocked
system.l3.blocked::no_mshrs                         0                       # number of cycles access was blocked
system.l3.blocked::no_targets                       0                       # number of cycles access was blocked
system.l3.avg_blocked_cycles::no_mshrs            nan                       # average number of cycles each access was blocked
system.l3.avg_blocked_cycles::no_targets          nan                       # average number of cycles each access was blocked
system.l3.writebacks::writebacks                97641                       # number of writebacks
system.l3.writebacks::total                     97641                       # number of writebacks
system.l3.CleanEvict_mshr_misses::writebacks          833                       # number of CleanEvict MSHR misses
system.l3.CleanEvict_mshr_misses::total           833                       # number of CleanEvict MSHR misses
system.l3.ReadExReq_mshr_misses::cpu.data        31415                       # number of ReadExReq MSHR misses
system.l3.ReadExReq_mshr_misses::total          31415                       # number of ReadExReq MSHR misses
system.l3.ReadSharedReq_mshr_misses::cpu.inst          355                       # number of ReadSharedReq MSHR misses
system.l3.ReadSharedReq_mshr_misses::cpu.data        88393                       # number of ReadSharedReq MSHR misses
system.l3.ReadSharedReq_mshr_misses::total        88748                       # number of ReadSharedReq MSHR misses
system.l3.demand_mshr_misses::cpu.inst            355                       # number of demand (read+write) MSHR misses
system.l3.demand_mshr_misses::cpu.data         119808                       # number of demand (read+write) MSHR misses
system.l3.demand_mshr_misses::total            120163                       # number of demand (read+write) MSHR misses
system.l3.overall_mshr_misses::cpu.inst           355                       # number of overall MSHR misses
system.l3.overall_mshr_misses::cpu.data        119808                       # number of overall MSHR misses
system.l3.overall_mshr_misses::total           120163                       # number of overall MSHR misses
system.l3.ReadExReq_mshr_miss_latency::cpu.data   6404166500                       # number of ReadExReq MSHR miss cycles
system.l3.ReadExReq_mshr_miss_latency::total   6404166500                       # number of ReadExReq MSHR miss cycles
system.l3.ReadSharedReq_mshr_miss_latency::cpu.inst     59096000                       # number of ReadSharedReq MSHR miss cycles
system.l3.ReadSharedReq_mshr_miss_latency::cpu.data  34755834999                       # number of ReadSharedReq MSHR miss cycles
system.l3.ReadSharedReq_mshr_miss_latency::total  34814930999                       # number of ReadSharedReq MSHR miss cycles
system.l3.demand_mshr_miss_latency::cpu.inst     59096000                       # number of demand (read+write) MSHR miss cycles
system.l3.demand_mshr_miss_latency::cpu.data  41160001499                       # number of demand (read+write) MSHR miss cycles
system.l3.demand_mshr_miss_latency::total  41219097499                       # number of demand (read+write) MSHR miss cycles
system.l3.overall_mshr_miss_latency::cpu.inst     59096000                       # number of overall MSHR miss cycles
system.l3.overall_mshr_miss_latency::cpu.data  41160001499                       # number of overall MSHR miss cycles
system.l3.overall_mshr_miss_latency::total  41219097499                       # number of overall MSHR miss cycles
system.l3.CleanEvict_mshr_miss_rate::writebacks          inf                       # mshr miss rate for CleanEvict accesses
system.l3.CleanEvict_mshr_miss_rate::total          inf                       # mshr miss rate for CleanEvict accesses
system.l3.ReadExReq_mshr_miss_rate::cpu.data     0.987458                       # mshr miss rate for ReadExReq accesses
system.l3.ReadExReq_mshr_miss_rate::total     0.987458                       # mshr miss rate for ReadExReq accesses
system.l3.ReadSharedReq_mshr_miss_rate::cpu.inst            1                       # mshr miss rate for ReadSharedReq accesses
system.l3.ReadSharedReq_mshr_miss_rate::cpu.data     0.408089                       # mshr miss rate for ReadSharedReq accesses
system.l3.ReadSharedReq_mshr_miss_rate::total     0.409058                       # mshr miss rate for ReadSharedReq accesses
system.l3.demand_mshr_miss_rate::cpu.inst            1                       # mshr miss rate for demand accesses
system.l3.demand_mshr_miss_rate::cpu.data     0.482288                       # mshr miss rate for demand accesses
system.l3.demand_mshr_miss_rate::total       0.483027                       # mshr miss rate for demand accesses
system.l3.overall_mshr_miss_rate::cpu.inst            1                       # mshr miss rate for overall accesses
system.l3.overall_mshr_miss_rate::cpu.data     0.482288                       # mshr miss rate for overall accesses
system.l3.overall_mshr_miss_rate::total      0.483027                       # mshr miss rate for overall accesses
system.l3.ReadExReq_avg_mshr_miss_latency::cpu.data 203856.963234                       # average ReadExReq mshr miss latency
system.l3.ReadExReq_avg_mshr_miss_latency::total 203856.963234                       # average ReadExReq mshr miss latency
system.l3.ReadSharedReq_avg_mshr_miss_latency::cpu.inst 166467.605634                       # average ReadSharedReq mshr miss latency
system.l3.ReadSharedReq_avg_mshr_miss_latency::cpu.data 393196.689772                       # average ReadSharedReq mshr miss latency
system.l3.ReadSharedReq_avg_mshr_miss_latency::total 392289.752997                       # average ReadSharedReq mshr miss latency
system.l3.demand_avg_mshr_miss_latency::cpu.inst 166467.605634                       # average overall mshr miss latency
system.l3.demand_avg_mshr_miss_latency::cpu.data 343549.691999                       # average overall mshr miss latency
system.l3.demand_avg_mshr_miss_latency::total 343026.534782                       # average overall mshr miss latency
system.l3.overall_avg_mshr_miss_latency::cpu.inst 166467.605634                       # average overall mshr miss latency
system.l3.overall_avg_mshr_miss_latency::cpu.data 343549.691999                       # average overall mshr miss latency
system.l3.overall_avg_mshr_miss_latency::total 343026.534782                       # average overall mshr miss latency
system.l3.replacements                         113192                       # number of replacements
system.membus.snoop_filter.tot_requests        227651                       # Total number of requests made to the snoop filter.
system.membus.snoop_filter.hit_single_requests       107488                       # Number of requests hitting in the snoop filter with a single holder of the requested data.
system.membus.snoop_filter.hit_multi_requests            0                       # Number of requests hitting in the snoop filter with multiple (>1) holders of the requested data.
system.membus.snoop_filter.tot_snoops               0                       # Total number of snoops made to the snoop filter.
system.membus.snoop_filter.hit_single_snoops            0                       # Number of snoops hitting in the snoop filter with a single holder of the requested data.
system.membus.snoop_filter.hit_multi_snoops            0                       # Number of snoops hitting in the snoop filter with multiple (>1) holders of the requested data.
system.membus.pwrStateResidencyTicks::UNDEFINED 537066208000                       # Cumulative time (in ticks) in various power states
system.membus.trans_dist::ReadResp              88748                       # Transaction distribution
system.membus.trans_dist::WritebackDirty        97641                       # Transaction distribution
system.membus.trans_dist::CleanEvict             5853                       # Transaction distribution
system.membus.trans_dist::ReadExReq             31415                       # Transaction distribution
system.membus.trans_dist::ReadExResp            31415                       # Transaction distribution
system.membus.trans_dist::ReadSharedReq         88748                       # Transaction distribution
system.membus.pkt_count_system.l3.mem_side::system.mem_ctrls.port       343820                       # Packet count per connected master and slave (bytes)
system.membus.pkt_count_system.l3.mem_side::total       343820                       # Packet count per connected master and slave (bytes)
system.membus.pkt_count::total                 343820                       # Packet count per connected master and slave (bytes)
system.membus.pkt_size_system.l3.mem_side::system.mem_ctrls.port     13939456                       # Cumulative packet size per connected master and slave (bytes)
system.membus.pkt_size_system.l3.mem_side::total     13939456                       # Cumulative packet size per connected master and slave (bytes)
system.membus.pkt_size::total                13939456                       # Cumulative packet size per connected master and slave (bytes)
system.membus.snoops                                0                       # Total snoops (count)
system.membus.snoopTraffic                          0                       # Total snoop traffic (bytes)
system.membus.snoop_fanout::samples            120163                       # Request fanout histogram
system.membus.snoop_fanout::mean                    0                       # Request fanout histogram
system.membus.snoop_fanout::stdev                   0                       # Request fanout histogram
system.membus.snoop_fanout::underflows              0      0.00%      0.00% # Request fanout histogram
system.membus.snoop_fanout::0                  120163    100.00%    100.00% # Request fanout histogram
system.membus.snoop_fanout::1                       0      0.00%    100.00% # Request fanout histogram
system.membus.snoop_fanout::overflows               0      0.00%    100.00% # Request fanout histogram
system.membus.snoop_fanout::min_value               0                       # Request fanout histogram
system.membus.snoop_fanout::max_value               0                       # Request fanout histogram
system.membus.snoop_fanout::total              120163                       # Request fanout histogram
system.membus.reqLayer2.occupancy           618412000                       # Layer occupancy (ticks)
system.membus.reqLayer2.utilization               0.1                       # Layer utilization (%)
system.membus.respLayer1.occupancy          600817500                       # Layer occupancy (ticks)
system.membus.respLayer1.utilization              0.1                       # Layer utilization (%)
system.tol2bus.snoop_filter.tot_requests       808502                       # Total number of requests made to the snoop filter.
system.tol2bus.snoop_filter.hit_single_requests       456046                       # Number of requests hitting in the snoop filter with a single holder of the requested data.
system.tol2bus.snoop_filter.hit_multi_requests            0                       # Number of requests hitting in the snoop filter with multiple (>1) holders of the requested data.
system.tol2bus.snoop_filter.tot_snoops           3673                       # Total number of snoops made to the snoop filter.
system.tol2bus.snoop_filter.hit_single_snoops         3673                       # Number of snoops hitting in the snoop filter with a single holder of the requested data.
system.tol2bus.snoop_filter.hit_multi_snoops            0                       # Number of snoops hitting in the snoop filter with multiple (>1) holders of the requested data.
system.tol2bus.pwrStateResidencyTicks::UNDEFINED 537066208000                       # Cumulative time (in ticks) in various power states
system.tol2bus.trans_dist::ReadResp            319189                       # Transaction distribution
system.tol2bus.trans_dist::WritebackDirty       556577                       # Transaction distribution
system.tol2bus.trans_dist::WritebackClean           46                       # Transaction distribution
system.tol2bus.trans_dist::CleanEvict           52324                       # Transaction distribution
system.tol2bus.trans_dist::UpgradeReq          104411                       # Transaction distribution
system.tol2bus.trans_dist::UpgradeResp         104411                       # Transaction distribution
system.tol2bus.trans_dist::ReadExReq            33267                       # Transaction distribution
system.tol2bus.trans_dist::ReadExResp           33267                       # Transaction distribution
system.tol2bus.trans_dist::ReadCleanReq           355                       # Transaction distribution
system.tol2bus.trans_dist::ReadSharedReq       318834                       # Transaction distribution
system.tol2bus.pkt_count_system.cpu.icache.mem_side::system.l2.cpu_side          756                       # Packet count per connected master and slave (bytes)
system.tol2bus.pkt_count_system.cpu.dcache.mem_side::system.l2.cpu_side      1264613                       # Packet count per connected master and slave (bytes)
system.tol2bus.pkt_count::total               1265369                       # Packet count per connected master and slave (bytes)
system.tol2bus.pkt_size_system.cpu.icache.mem_side::system.l2.cpu_side        25664                       # Cumulative packet size per connected master and slave (bytes)
system.tol2bus.pkt_size_system.cpu.dcache.mem_side::system.l2.cpu_side     43087680                       # Cumulative packet size per connected master and slave (bytes)
system.tol2bus.pkt_size::total               43113344                       # Cumulative packet size per connected master and slave (bytes)
system.tol2bus.snoops                          257312                       # Total snoops (count)
system.tol2bus.snoopTraffic                  15067712                       # Total snoop traffic (bytes)
system.tol2bus.snoop_fanout::samples           714179                       # Request fanout histogram
system.tol2bus.snoop_fanout::mean            0.005143                       # Request fanout histogram
system.tol2bus.snoop_fanout::stdev           0.071530                       # Request fanout histogram
system.tol2bus.snoop_fanout::underflows             0      0.00%      0.00% # Request fanout histogram
system.tol2bus.snoop_fanout::0                 710506     99.49%     99.49% # Request fanout histogram
system.tol2bus.snoop_fanout::1                   3673      0.51%    100.00% # Request fanout histogram
system.tol2bus.snoop_fanout::2                      0      0.00%    100.00% # Request fanout histogram
system.tol2bus.snoop_fanout::3                      0      0.00%    100.00% # Request fanout histogram
system.tol2bus.snoop_fanout::4                      0      0.00%    100.00% # Request fanout histogram
system.tol2bus.snoop_fanout::overflows              0      0.00%    100.00% # Request fanout histogram
system.tol2bus.snoop_fanout::min_value              0                       # Request fanout histogram
system.tol2bus.snoop_fanout::max_value              1                       # Request fanout histogram
system.tol2bus.snoop_fanout::total             714179                       # Request fanout histogram
system.tol2bus.reqLayer0.occupancy          725441000                       # Layer occupancy (ticks)
system.tol2bus.reqLayer0.utilization              0.1                       # Layer utilization (%)
system.tol2bus.respLayer0.occupancy            532500                       # Layer occupancy (ticks)
system.tol2bus.respLayer0.utilization             0.0                       # Layer utilization (%)
system.tol2bus.respLayer1.occupancy         580357000                       # Layer occupancy (ticks)
system.tol2bus.respLayer1.utilization             0.1                       # Layer utilization (%)
system.tol3bus.snoop_filter.tot_requests       495249                       # Total number of requests made to the snoop filter.
system.tol3bus.snoop_filter.hit_single_requests       246452                       # Number of requests hitting in the snoop filter with a single holder of the requested data.
system.tol3bus.snoop_filter.hit_multi_requests            0                       # Number of requests hitting in the snoop filter with multiple (>1) holders of the requested data.
system.tol3bus.snoop_filter.tot_snoops          10531                       # Total number of snoops made to the snoop filter.
system.tol3bus.snoop_filter.hit_single_snoops        10531                       # Number of snoops hitting in the snoop filter with a single holder of the requested data.
system.tol3bus.snoop_filter.hit_multi_snoops            0                       # Number of snoops hitting in the snoop filter with multiple (>1) holders of the requested data.
system.tol3bus.pwrStateResidencyTicks::UNDEFINED 537066208000                       # Cumulative time (in ticks) in various power states
system.tol3bus.trans_dist::ReadResp            216957                       # Transaction distribution
system.tol3bus.trans_dist::WritebackDirty       333074                       # Transaction distribution
system.tol3bus.trans_dist::CleanEvict           26570                       # Transaction distribution
system.tol3bus.trans_dist::ReadExReq            31814                       # Transaction distribution
system.tol3bus.trans_dist::ReadExResp           31814                       # Transaction distribution
system.tol3bus.trans_dist::ReadSharedReq       216957                       # Transaction distribution
system.tol3bus.pkt_count_system.l2.mem_side::system.l3.cpu_side       743994                       # Packet count per connected master and slave (bytes)
system.tol3bus.pkt_size_system.l2.mem_side::system.l3.cpu_side     30989056                       # Cumulative packet size per connected master and slave (bytes)
system.tol3bus.snoops                          113192                       # Total snoops (count)
system.tol3bus.snoopTraffic                   6249024                       # Total snoop traffic (bytes)
system.tol3bus.snoop_fanout::samples           361989                       # Request fanout histogram
system.tol3bus.snoop_fanout::mean            0.029092                       # Request fanout histogram
system.tol3bus.snoop_fanout::stdev           0.168065                       # Request fanout histogram
system.tol3bus.snoop_fanout::underflows             0      0.00%      0.00% # Request fanout histogram
system.tol3bus.snoop_fanout::0                 351458     97.09%     97.09% # Request fanout histogram
system.tol3bus.snoop_fanout::1                  10531      2.91%    100.00% # Request fanout histogram
system.tol3bus.snoop_fanout::overflows              0      0.00%    100.00% # Request fanout histogram
system.tol3bus.snoop_fanout::min_value              0                       # Request fanout histogram
system.tol3bus.snoop_fanout::max_value              1                       # Request fanout histogram
system.tol3bus.snoop_fanout::total             361989                       # Request fanout histogram
system.tol3bus.reqLayer0.occupancy          483070474                       # Layer occupancy (ticks)
system.tol3bus.reqLayer0.utilization              0.1                       # Layer utilization (%)
system.tol3bus.respLayer0.occupancy         373156525                       # Layer occupancy (ticks)
system.tol3bus.respLayer0.utilization             0.1                       # Layer utilization (%)

---------- End Simulation Statistics   ----------
