
---------- Begin Simulation Statistics ----------
sim_seconds                                  5.906621                       # Number of seconds simulated
sim_ticks                                5906621193000                       # Number of ticks simulated
final_tick                               5906621193000                       # Number of ticks from beginning of simulation (restored from checkpoints and never reset)
sim_freq                                 1000000000000                       # Frequency of simulated ticks
host_inst_rate                                 601174                       # Simulator instruction rate (inst/s)
host_op_rate                                   951486                       # Simulator op (including micro ops) rate (op/s)
host_tick_rate                             3093016879                       # Simulator tick rate (ticks/s)
host_mem_usage                                 664984                       # Number of bytes of host memory used
host_seconds                                  1909.67                       # Real time elapsed on the host
sim_insts                                  1148039916                       # Number of instructions simulated
sim_ops                                    1817017803                       # Number of ops (including micro ops) simulated
system.voltage_domain.voltage                       1                       # Voltage in Volts
system.clk_domain.clock                          1000                       # Clock period in ticks
system.mem_ctrls.pwrStateResidencyTicks::UNDEFINED 5906621193000                       # Cumulative time (in ticks) in various power states
system.mem_ctrls.bytes_read::cpu.inst           22720                       # Number of bytes read from this memory
system.mem_ctrls.bytes_read::cpu.data         1095168                       # Number of bytes read from this memory
system.mem_ctrls.bytes_read::total            1117888                       # Number of bytes read from this memory
system.mem_ctrls.bytes_inst_read::cpu.inst        22720                       # Number of instructions bytes read from this memory
system.mem_ctrls.bytes_inst_read::total         22720                       # Number of instructions bytes read from this memory
system.mem_ctrls.bytes_written::writebacks    890001408                       # Number of bytes written to this memory
system.mem_ctrls.bytes_written::total       890001408                       # Number of bytes written to this memory
system.mem_ctrls.num_reads::cpu.inst              355                       # Number of read requests responded to by this memory
system.mem_ctrls.num_reads::cpu.data            17112                       # Number of read requests responded to by this memory
system.mem_ctrls.num_reads::total               17467                       # Number of read requests responded to by this memory
system.mem_ctrls.num_writes::writebacks      13906272                       # Number of write requests responded to by this memory
system.mem_ctrls.num_writes::total           13906272                       # Number of write requests responded to by this memory
system.mem_ctrls.bw_read::cpu.inst               3847                       # Total read bandwidth from this memory (bytes/s)
system.mem_ctrls.bw_read::cpu.data             185414                       # Total read bandwidth from this memory (bytes/s)
system.mem_ctrls.bw_read::total                189260                       # Total read bandwidth from this memory (bytes/s)
system.mem_ctrls.bw_inst_read::cpu.inst          3847                       # Instruction read bandwidth from this memory (bytes/s)
system.mem_ctrls.bw_inst_read::total             3847                       # Instruction read bandwidth from this memory (bytes/s)
system.mem_ctrls.bw_write::writebacks       150678599                       # Write bandwidth from this memory (bytes/s)
system.mem_ctrls.bw_write::total            150678599                       # Write bandwidth from this memory (bytes/s)
system.mem_ctrls.bw_total::writebacks       150678599                       # Total bandwidth to/from this memory (bytes/s)
system.mem_ctrls.bw_total::cpu.inst              3847                       # Total bandwidth to/from this memory (bytes/s)
system.mem_ctrls.bw_total::cpu.data            185414                       # Total bandwidth to/from this memory (bytes/s)
system.mem_ctrls.bw_total::total            150867859                       # Total bandwidth to/from this memory (bytes/s)
system.pwrStateResidencyTicks::UNDEFINED 5906621193000                       # Cumulative time (in ticks) in various power states
system.cpu_voltage_domain.voltage                   1                       # Voltage in Volts
system.cpu_clk_domain.clock                       500                       # Clock period in ticks
system.cpu.dtb.walker.pwrStateResidencyTicks::UNDEFINED 5906621193000                       # Cumulative time (in ticks) in various power states
system.cpu.dtb.rdAccesses                   382684115                       # TLB accesses on read requests
system.cpu.dtb.wrAccesses                    56342498                       # TLB accesses on write requests
system.cpu.dtb.rdMisses                       7952942                       # TLB misses on read requests
system.cpu.dtb.wrMisses                           272                       # TLB misses on write requests
system.cpu.apic_clk_domain.clock                 8000                       # Clock period in ticks
system.cpu.interrupts.pwrStateResidencyTicks::UNDEFINED 5906621193000                       # Cumulative time (in ticks) in various power states
system.cpu.itb.walker.pwrStateResidencyTicks::UNDEFINED 5906621193000                       # Cumulative time (in ticks) in various power states
system.cpu.itb.rdAccesses                           0                       # TLB accesses on read requests
system.cpu.itb.wrAccesses                  1611544147                       # TLB accesses on write requests
system.cpu.itb.rdMisses                             0                       # TLB misses on read requests
system.cpu.itb.wrMisses                            37                       # TLB misses on write requests
system.cpu.workload.numSyscalls                     9                       # Number of system calls
system.cpu.pwrStateResidencyTicks::ON    5906621193000                       # Cumulative time (in ticks) in various power states
system.cpu.numCycles                      11813242386                       # number of cpu cycles simulated
system.cpu.numWorkItemsStarted                      0                       # number of work items this cpu started
system.cpu.numWorkItemsCompleted                    0                       # number of work items this cpu completed
system.cpu.committedInsts                  1148039916                       # Number of instructions committed
system.cpu.committedOps                    1817017803                       # Number of ops (including micro ops) committed
system.cpu.num_int_alu_accesses            1816511089                       # Number of integer alu accesses
system.cpu.num_fp_alu_accesses                   1975                       # Number of float alu accesses
system.cpu.num_vec_alu_accesses                     0                       # Number of vector alu accesses
system.cpu.num_func_calls                     1080242                       # number of times a function call or return occured
system.cpu.num_conditional_control_insts     29571459                       # number of instructions that are conditional controls
system.cpu.num_int_insts                   1816511089                       # number of integer instructions
system.cpu.num_fp_insts                          1975                       # number of float instructions
system.cpu.num_vec_insts                            0                       # number of vector instructions
system.cpu.num_int_register_reads          3719825105                       # number of times the integer registers were read
system.cpu.num_int_register_writes         1870322947                       # number of times the integer registers were written
system.cpu.num_fp_register_reads                 3787                       # number of times the floating registers were read
system.cpu.num_fp_register_writes                1492                       # number of times the floating registers were written
system.cpu.num_vec_register_reads                   0                       # number of times the vector registers were read
system.cpu.num_vec_register_writes                  0                       # number of times the vector registers were written
system.cpu.num_cc_register_reads            159199324                       # number of times the CC registers were read
system.cpu.num_cc_register_writes           469310538                       # number of times the CC registers were written
system.cpu.num_mem_refs                     439026607                       # number of memory refs
system.cpu.num_load_insts                   382684110                       # Number of load instructions
system.cpu.num_store_insts                   56342497                       # Number of store instructions
system.cpu.num_idle_cycles                          0                       # Number of idle cycles
system.cpu.num_busy_cycles                11813242386                       # Number of busy cycles
system.cpu.not_idle_fraction                        1                       # Percentage of non-idle cycles
system.cpu.idle_fraction                            0                       # Percentage of idle cycles
system.cpu.Branches                          30742411                       # Number of branches fetched
system.cpu.op_class::No_OpClass                505293      0.03%      0.03% # Class of executed instruction
system.cpu.op_class::IntAlu                1239654157     68.22%     68.25% # Class of executed instruction
system.cpu.op_class::IntMult                135270004      7.44%     75.70% # Class of executed instruction
system.cpu.op_class::IntDiv                   2560782      0.14%     75.84% # Class of executed instruction
system.cpu.op_class::FloatAdd                      10      0.00%     75.84% # Class of executed instruction
system.cpu.op_class::FloatCmp                       0      0.00%     75.84% # Class of executed instruction
system.cpu.op_class::FloatCvt                       0      0.00%     75.84% # Class of executed instruction
system.cpu.op_class::FloatMult                      0      0.00%     75.84% # Class of executed instruction
system.cpu.op_class::FloatMultAcc                   0      0.00%     75.84% # Class of executed instruction
system.cpu.op_class::FloatDiv                       0      0.00%     75.84% # Class of executed instruction
system.cpu.op_class::FloatMisc                      0      0.00%     75.84% # Class of executed instruction
system.cpu.op_class::FloatSqrt                      0      0.00%     75.84% # Class of executed instruction
system.cpu.op_class::SimdAdd                      374      0.00%     75.84% # Class of executed instruction
system.cpu.op_class::SimdAddAcc                     0      0.00%     75.84% # Class of executed instruction
system.cpu.op_class::SimdAlu                       68      0.00%     75.84% # Class of executed instruction
system.cpu.op_class::SimdCmp                        0      0.00%     75.84% # Class of executed instruction
system.cpu.op_class::SimdCvt                      108      0.00%     75.84% # Class of executed instruction
system.cpu.op_class::SimdMisc                     214      0.00%     75.84% # Class of executed instruction
system.cpu.op_class::SimdMult                       0      0.00%     75.84% # Class of executed instruction
system.cpu.op_class::SimdMultAcc                    0      0.00%     75.84% # Class of executed instruction
system.cpu.op_class::SimdShift                    186      0.00%     75.84% # Class of executed instruction
system.cpu.op_class::SimdShiftAcc                   0      0.00%     75.84% # Class of executed instruction
system.cpu.op_class::SimdSqrt                       0      0.00%     75.84% # Class of executed instruction
system.cpu.op_class::SimdFloatAdd                   0      0.00%     75.84% # Class of executed instruction
system.cpu.op_class::SimdFloatAlu                   0      0.00%     75.84% # Class of executed instruction
system.cpu.op_class::SimdFloatCmp                   0      0.00%     75.84% # Class of executed instruction
system.cpu.op_class::SimdFloatCvt                   0      0.00%     75.84% # Class of executed instruction
system.cpu.op_class::SimdFloatDiv                   0      0.00%     75.84% # Class of executed instruction
system.cpu.op_class::SimdFloatMisc                  0      0.00%     75.84% # Class of executed instruction
system.cpu.op_class::SimdFloatMult                  0      0.00%     75.84% # Class of executed instruction
system.cpu.op_class::SimdFloatMultAcc               0      0.00%     75.84% # Class of executed instruction
system.cpu.op_class::SimdFloatSqrt                  0      0.00%     75.84% # Class of executed instruction
system.cpu.op_class::MemRead                382684042     21.06%     96.90% # Class of executed instruction
system.cpu.op_class::MemWrite                56342062      3.10%    100.00% # Class of executed instruction
system.cpu.op_class::FloatMemRead                  68      0.00%    100.00% # Class of executed instruction
system.cpu.op_class::FloatMemWrite                435      0.00%    100.00% # Class of executed instruction
system.cpu.op_class::IprAccess                      0      0.00%    100.00% # Class of executed instruction
system.cpu.op_class::InstPrefetch                   0      0.00%    100.00% # Class of executed instruction
system.cpu.op_class::total                 1817017803                       # Class of executed instruction
system.cpu.dcache.tags.pwrStateResidencyTicks::UNDEFINED 5906621193000                       # Cumulative time (in ticks) in various power states
system.cpu.dcache.tags.tagsinuse           511.829136                       # Cycle average of tags in use
system.cpu.dcache.tags.total_refs           439026613                       # Total number of references to valid blocks.
system.cpu.dcache.tags.sampled_refs           3128820                       # Sample count of references to valid blocks.
system.cpu.dcache.tags.avg_refs            140.316993                       # Average number of references to valid blocks.
system.cpu.dcache.tags.warmup_cycle            764000                       # Cycle when the warmup percentage was hit.
system.cpu.dcache.tags.occ_blocks::cpu.data   511.829136                       # Average occupied blocks per requestor
system.cpu.dcache.tags.occ_percent::cpu.data     0.999666                       # Average percentage of cache occupancy
system.cpu.dcache.tags.occ_percent::total     0.999666                       # Average percentage of cache occupancy
system.cpu.dcache.tags.occ_task_id_blocks::1024          512                       # Occupied blocks per task id
system.cpu.dcache.tags.age_task_id_blocks_1024::0           11                       # Occupied blocks per task id
system.cpu.dcache.tags.age_task_id_blocks_1024::1           24                       # Occupied blocks per task id
system.cpu.dcache.tags.age_task_id_blocks_1024::2          150                       # Occupied blocks per task id
system.cpu.dcache.tags.age_task_id_blocks_1024::3          326                       # Occupied blocks per task id
system.cpu.dcache.tags.age_task_id_blocks_1024::4            1                       # Occupied blocks per task id
system.cpu.dcache.tags.occ_task_id_percent::1024            1                       # Percentage of cache occupancy per task id
system.cpu.dcache.tags.tag_accesses         881182046                       # Number of tag accesses
system.cpu.dcache.tags.data_accesses        881182046                       # Number of data accesses
system.cpu.dcache.pwrStateResidencyTicks::UNDEFINED 5906621193000                       # Cumulative time (in ticks) in various power states
system.cpu.dcache.ReadReq_hits::cpu.data    379575816                       # number of ReadReq hits
system.cpu.dcache.ReadReq_hits::total       379575816                       # number of ReadReq hits
system.cpu.dcache.WriteReq_hits::cpu.data       714935                       # number of WriteReq hits
system.cpu.dcache.WriteReq_hits::total         714935                       # number of WriteReq hits
system.cpu.dcache.demand_hits::cpu.data     380290751                       # number of demand (read+write) hits
system.cpu.dcache.demand_hits::total        380290751                       # number of demand (read+write) hits
system.cpu.dcache.overall_hits::cpu.data    380290751                       # number of overall hits
system.cpu.dcache.overall_hits::total       380290751                       # number of overall hits
system.cpu.dcache.ReadReq_misses::cpu.data      3108299                       # number of ReadReq misses
system.cpu.dcache.ReadReq_misses::total       3108299                       # number of ReadReq misses
system.cpu.dcache.WriteReq_misses::cpu.data     55627563                       # number of WriteReq misses
system.cpu.dcache.WriteReq_misses::total     55627563                       # number of WriteReq misses
system.cpu.dcache.demand_misses::cpu.data     58735862                       # number of demand (read+write) misses
system.cpu.dcache.demand_misses::total       58735862                       # number of demand (read+write) misses
system.cpu.dcache.overall_misses::cpu.data     58735862                       # number of overall misses
system.cpu.dcache.overall_misses::total      58735862                       # number of overall misses
system.cpu.dcache.ReadReq_miss_latency::cpu.data  76010437000                       # number of ReadReq miss cycles
system.cpu.dcache.ReadReq_miss_latency::total  76010437000                       # number of ReadReq miss cycles
system.cpu.dcache.WriteReq_miss_latency::cpu.data 3838676466000                       # number of WriteReq miss cycles
system.cpu.dcache.WriteReq_miss_latency::total 3838676466000                       # number of WriteReq miss cycles
system.cpu.dcache.demand_miss_latency::cpu.data 3914686903000                       # number of demand (read+write) miss cycles
system.cpu.dcache.demand_miss_latency::total 3914686903000                       # number of demand (read+write) miss cycles
system.cpu.dcache.overall_miss_latency::cpu.data 3914686903000                       # number of overall miss cycles
system.cpu.dcache.overall_miss_latency::total 3914686903000                       # number of overall miss cycles
system.cpu.dcache.ReadReq_accesses::cpu.data    382684115                       # number of ReadReq accesses(hits+misses)
system.cpu.dcache.ReadReq_accesses::total    382684115                       # number of ReadReq accesses(hits+misses)
system.cpu.dcache.WriteReq_accesses::cpu.data     56342498                       # number of WriteReq accesses(hits+misses)
system.cpu.dcache.WriteReq_accesses::total     56342498                       # number of WriteReq accesses(hits+misses)
system.cpu.dcache.demand_accesses::cpu.data    439026613                       # number of demand (read+write) accesses
system.cpu.dcache.demand_accesses::total    439026613                       # number of demand (read+write) accesses
system.cpu.dcache.overall_accesses::cpu.data    439026613                       # number of overall (read+write) accesses
system.cpu.dcache.overall_accesses::total    439026613                       # number of overall (read+write) accesses
system.cpu.dcache.ReadReq_miss_rate::cpu.data     0.008122                       # miss rate for ReadReq accesses
system.cpu.dcache.ReadReq_miss_rate::total     0.008122                       # miss rate for ReadReq accesses
system.cpu.dcache.WriteReq_miss_rate::cpu.data     0.987311                       # miss rate for WriteReq accesses
system.cpu.dcache.WriteReq_miss_rate::total     0.987311                       # miss rate for WriteReq accesses
system.cpu.dcache.demand_miss_rate::cpu.data     0.133787                       # miss rate for demand accesses
system.cpu.dcache.demand_miss_rate::total     0.133787                       # miss rate for demand accesses
system.cpu.dcache.overall_miss_rate::cpu.data     0.133787                       # miss rate for overall accesses
system.cpu.dcache.overall_miss_rate::total     0.133787                       # miss rate for overall accesses
system.cpu.dcache.ReadReq_avg_miss_latency::cpu.data 24454.030002                       # average ReadReq miss latency
system.cpu.dcache.ReadReq_avg_miss_latency::total 24454.030002                       # average ReadReq miss latency
system.cpu.dcache.WriteReq_avg_miss_latency::cpu.data 69006.734413                       # average WriteReq miss latency
system.cpu.dcache.WriteReq_avg_miss_latency::total 69006.734413                       # average WriteReq miss latency
system.cpu.dcache.demand_avg_miss_latency::cpu.data 66649.007433                       # average overall miss latency
system.cpu.dcache.demand_avg_miss_latency::total 66649.007433                       # average overall miss latency
system.cpu.dcache.overall_avg_miss_latency::cpu.data 66649.007433                       # average overall miss latency
system.cpu.dcache.overall_avg_miss_latency::total 66649.007433                       # average overall miss latency
system.cpu.dcache.blocked_cycles::no_mshrs            0                       # number of cycles access was blocked
system.cpu.dcache.blocked_cycles::no_targets            0                       # number of cycles access was blocked
system.cpu.dcache.blocked::no_mshrs                 0                       # number of cycles access was blocked
system.cpu.dcache.blocked::no_targets               0                       # number of cycles access was blocked
system.cpu.dcache.avg_blocked_cycles::no_mshrs          nan                       # average number of cycles each access was blocked
system.cpu.dcache.avg_blocked_cycles::no_targets          nan                       # average number of cycles each access was blocked
system.cpu.dcache.writebacks::writebacks         5656                       # number of writebacks
system.cpu.dcache.writebacks::total              5656                       # number of writebacks
system.cpu.dcache.ReadReq_mshr_misses::cpu.data      3108299                       # number of ReadReq MSHR misses
system.cpu.dcache.ReadReq_mshr_misses::total      3108299                       # number of ReadReq MSHR misses
system.cpu.dcache.WriteReq_mshr_misses::cpu.data     55627563                       # number of WriteReq MSHR misses
system.cpu.dcache.WriteReq_mshr_misses::total     55627563                       # number of WriteReq MSHR misses
system.cpu.dcache.demand_mshr_misses::cpu.data     58735862                       # number of demand (read+write) MSHR misses
system.cpu.dcache.demand_mshr_misses::total     58735862                       # number of demand (read+write) MSHR misses
system.cpu.dcache.overall_mshr_misses::cpu.data     58735862                       # number of overall MSHR misses
system.cpu.dcache.overall_mshr_misses::total     58735862                       # number of overall MSHR misses
system.cpu.dcache.ReadReq_mshr_miss_latency::cpu.data  72902138000                       # number of ReadReq MSHR miss cycles
system.cpu.dcache.ReadReq_mshr_miss_latency::total  72902138000                       # number of ReadReq MSHR miss cycles
system.cpu.dcache.WriteReq_mshr_miss_latency::cpu.data 3783048903000                       # number of WriteReq MSHR miss cycles
system.cpu.dcache.WriteReq_mshr_miss_latency::total 3783048903000                       # number of WriteReq MSHR miss cycles
system.cpu.dcache.demand_mshr_miss_latency::cpu.data 3855951041000                       # number of demand (read+write) MSHR miss cycles
system.cpu.dcache.demand_mshr_miss_latency::total 3855951041000                       # number of demand (read+write) MSHR miss cycles
system.cpu.dcache.overall_mshr_miss_latency::cpu.data 3855951041000                       # number of overall MSHR miss cycles
system.cpu.dcache.overall_mshr_miss_latency::total 3855951041000                       # number of overall MSHR miss cycles
system.cpu.dcache.ReadReq_mshr_miss_rate::cpu.data     0.008122                       # mshr miss rate for ReadReq accesses
system.cpu.dcache.ReadReq_mshr_miss_rate::total     0.008122                       # mshr miss rate for ReadReq accesses
system.cpu.dcache.WriteReq_mshr_miss_rate::cpu.data     0.987311                       # mshr miss rate for WriteReq accesses
system.cpu.dcache.WriteReq_mshr_miss_rate::total     0.987311                       # mshr miss rate for WriteReq accesses
system.cpu.dcache.demand_mshr_miss_rate::cpu.data     0.133787                       # mshr miss rate for demand accesses
system.cpu.dcache.demand_mshr_miss_rate::total     0.133787                       # mshr miss rate for demand accesses
system.cpu.dcache.overall_mshr_miss_rate::cpu.data     0.133787                       # mshr miss rate for overall accesses
system.cpu.dcache.overall_mshr_miss_rate::total     0.133787                       # mshr miss rate for overall accesses
system.cpu.dcache.ReadReq_avg_mshr_miss_latency::cpu.data 23454.030002                       # average ReadReq mshr miss latency
system.cpu.dcache.ReadReq_avg_mshr_miss_latency::total 23454.030002                       # average ReadReq mshr miss latency
system.cpu.dcache.WriteReq_avg_mshr_miss_latency::cpu.data 68006.734413                       # average WriteReq mshr miss latency
system.cpu.dcache.WriteReq_avg_mshr_miss_latency::total 68006.734413                       # average WriteReq mshr miss latency
system.cpu.dcache.demand_avg_mshr_miss_latency::cpu.data 65649.007433                       # average overall mshr miss latency
system.cpu.dcache.demand_avg_mshr_miss_latency::total 65649.007433                       # average overall mshr miss latency
system.cpu.dcache.overall_avg_mshr_miss_latency::cpu.data 65649.007433                       # average overall mshr miss latency
system.cpu.dcache.overall_avg_mshr_miss_latency::total 65649.007433                       # average overall mshr miss latency
system.cpu.dcache.replacements                3128308                       # number of replacements
system.cpu.dtb_walker_cache.tags.pwrStateResidencyTicks::UNDEFINED 5906621193000                       # Cumulative time (in ticks) in various power states
system.cpu.dtb_walker_cache.tags.tagsinuse            0                       # Cycle average of tags in use
system.cpu.dtb_walker_cache.tags.total_refs            0                       # Total number of references to valid blocks.
system.cpu.dtb_walker_cache.tags.sampled_refs            0                       # Sample count of references to valid blocks.
system.cpu.dtb_walker_cache.tags.avg_refs          nan                       # Average number of references to valid blocks.
system.cpu.dtb_walker_cache.tags.warmup_cycle            0                       # Cycle when the warmup percentage was hit.
system.cpu.dtb_walker_cache.tags.tag_accesses            0                       # Number of tag accesses
system.cpu.dtb_walker_cache.tags.data_accesses            0                       # Number of data accesses
system.cpu.dtb_walker_cache.pwrStateResidencyTicks::UNDEFINED 5906621193000                       # Cumulative time (in ticks) in various power states
system.cpu.dtb_walker_cache.blocked_cycles::no_mshrs            0                       # number of cycles access was blocked
system.cpu.dtb_walker_cache.blocked_cycles::no_targets            0                       # number of cycles access was blocked
system.cpu.dtb_walker_cache.blocked::no_mshrs            0                       # number of cycles access was blocked
system.cpu.dtb_walker_cache.blocked::no_targets            0                       # number of cycles access was blocked
system.cpu.dtb_walker_cache.avg_blocked_cycles::no_mshrs          nan                       # average number of cycles each access was blocked
system.cpu.dtb_walker_cache.avg_blocked_cycles::no_targets          nan                       # average number of cycles each access was blocked
system.cpu.dtb_walker_cache.replacements            0                       # number of replacements
system.cpu.icache.tags.pwrStateResidencyTicks::UNDEFINED 5906621193000                       # Cumulative time (in ticks) in various power states
system.cpu.icache.tags.tagsinuse           281.918728                       # Cycle average of tags in use
system.cpu.icache.tags.total_refs          1611544147                       # Total number of references to valid blocks.
system.cpu.icache.tags.sampled_refs               355                       # Sample count of references to valid blocks.
system.cpu.icache.tags.avg_refs          4539560.977465                       # Average number of references to valid blocks.
system.cpu.icache.tags.warmup_cycle            439000                       # Cycle when the warmup percentage was hit.
system.cpu.icache.tags.occ_blocks::cpu.inst   281.918728                       # Average occupied blocks per requestor
system.cpu.icache.tags.occ_percent::cpu.inst     0.550623                       # Average percentage of cache occupancy
system.cpu.icache.tags.occ_percent::total     0.550623                       # Average percentage of cache occupancy
system.cpu.icache.tags.occ_task_id_blocks::1024          311                       # Occupied blocks per task id
system.cpu.icache.tags.age_task_id_blocks_1024::0           16                       # Occupied blocks per task id
system.cpu.icache.tags.age_task_id_blocks_1024::1           22                       # Occupied blocks per task id
system.cpu.icache.tags.age_task_id_blocks_1024::4          273                       # Occupied blocks per task id
system.cpu.icache.tags.occ_task_id_percent::1024     0.607422                       # Percentage of cache occupancy per task id
system.cpu.icache.tags.tag_accesses        3223088649                       # Number of tag accesses
system.cpu.icache.tags.data_accesses       3223088649                       # Number of data accesses
system.cpu.icache.pwrStateResidencyTicks::UNDEFINED 5906621193000                       # Cumulative time (in ticks) in various power states
system.cpu.icache.ReadReq_hits::cpu.inst   1611543792                       # number of ReadReq hits
system.cpu.icache.ReadReq_hits::total      1611543792                       # number of ReadReq hits
system.cpu.icache.demand_hits::cpu.inst    1611543792                       # number of demand (read+write) hits
system.cpu.icache.demand_hits::total       1611543792                       # number of demand (read+write) hits
system.cpu.icache.overall_hits::cpu.inst   1611543792                       # number of overall hits
system.cpu.icache.overall_hits::total      1611543792                       # number of overall hits
system.cpu.icache.ReadReq_misses::cpu.inst          355                       # number of ReadReq misses
system.cpu.icache.ReadReq_misses::total           355                       # number of ReadReq misses
system.cpu.icache.demand_misses::cpu.inst          355                       # number of demand (read+write) misses
system.cpu.icache.demand_misses::total            355                       # number of demand (read+write) misses
system.cpu.icache.overall_misses::cpu.inst          355                       # number of overall misses
system.cpu.icache.overall_misses::total           355                       # number of overall misses
system.cpu.icache.ReadReq_miss_latency::cpu.inst     99752000                       # number of ReadReq miss cycles
system.cpu.icache.ReadReq_miss_latency::total     99752000                       # number of ReadReq miss cycles
system.cpu.icache.demand_miss_latency::cpu.inst     99752000                       # number of demand (read+write) miss cycles
system.cpu.icache.demand_miss_latency::total     99752000                       # number of demand (read+write) miss cycles
system.cpu.icache.overall_miss_latency::cpu.inst     99752000                       # number of overall miss cycles
system.cpu.icache.overall_miss_latency::total     99752000                       # number of overall miss cycles
system.cpu.icache.ReadReq_accesses::cpu.inst   1611544147                       # number of ReadReq accesses(hits+misses)
system.cpu.icache.ReadReq_accesses::total   1611544147                       # number of ReadReq accesses(hits+misses)
system.cpu.icache.demand_accesses::cpu.inst   1611544147                       # number of demand (read+write) accesses
system.cpu.icache.demand_accesses::total   1611544147                       # number of demand (read+write) accesses
system.cpu.icache.overall_accesses::cpu.inst   1611544147                       # number of overall (read+write) accesses
system.cpu.icache.overall_accesses::total   1611544147                       # number of overall (read+write) accesses
system.cpu.icache.ReadReq_miss_rate::cpu.inst     0.000000                       # miss rate for ReadReq accesses
system.cpu.icache.ReadReq_miss_rate::total     0.000000                       # miss rate for ReadReq accesses
system.cpu.icache.demand_miss_rate::cpu.inst     0.000000                       # miss rate for demand accesses
system.cpu.icache.demand_miss_rate::total     0.000000                       # miss rate for demand accesses
system.cpu.icache.overall_miss_rate::cpu.inst     0.000000                       # miss rate for overall accesses
system.cpu.icache.overall_miss_rate::total     0.000000                       # miss rate for overall accesses
system.cpu.icache.ReadReq_avg_miss_latency::cpu.inst 280991.549296                       # average ReadReq miss latency
system.cpu.icache.ReadReq_avg_miss_latency::total 280991.549296                       # average ReadReq miss latency
system.cpu.icache.demand_avg_miss_latency::cpu.inst 280991.549296                       # average overall miss latency
system.cpu.icache.demand_avg_miss_latency::total 280991.549296                       # average overall miss latency
system.cpu.icache.overall_avg_miss_latency::cpu.inst 280991.549296                       # average overall miss latency
system.cpu.icache.overall_avg_miss_latency::total 280991.549296                       # average overall miss latency
system.cpu.icache.blocked_cycles::no_mshrs            0                       # number of cycles access was blocked
system.cpu.icache.blocked_cycles::no_targets            0                       # number of cycles access was blocked
system.cpu.icache.blocked::no_mshrs                 0                       # number of cycles access was blocked
system.cpu.icache.blocked::no_targets               0                       # number of cycles access was blocked
system.cpu.icache.avg_blocked_cycles::no_mshrs          nan                       # average number of cycles each access was blocked
system.cpu.icache.avg_blocked_cycles::no_targets          nan                       # average number of cycles each access was blocked
system.cpu.icache.writebacks::writebacks           44                       # number of writebacks
system.cpu.icache.writebacks::total                44                       # number of writebacks
system.cpu.icache.ReadReq_mshr_misses::cpu.inst          355                       # number of ReadReq MSHR misses
system.cpu.icache.ReadReq_mshr_misses::total          355                       # number of ReadReq MSHR misses
system.cpu.icache.demand_mshr_misses::cpu.inst          355                       # number of demand (read+write) MSHR misses
system.cpu.icache.demand_mshr_misses::total          355                       # number of demand (read+write) MSHR misses
system.cpu.icache.overall_mshr_misses::cpu.inst          355                       # number of overall MSHR misses
system.cpu.icache.overall_mshr_misses::total          355                       # number of overall MSHR misses
system.cpu.icache.ReadReq_mshr_miss_latency::cpu.inst     99397000                       # number of ReadReq MSHR miss cycles
system.cpu.icache.ReadReq_mshr_miss_latency::total     99397000                       # number of ReadReq MSHR miss cycles
system.cpu.icache.demand_mshr_miss_latency::cpu.inst     99397000                       # number of demand (read+write) MSHR miss cycles
system.cpu.icache.demand_mshr_miss_latency::total     99397000                       # number of demand (read+write) MSHR miss cycles
system.cpu.icache.overall_mshr_miss_latency::cpu.inst     99397000                       # number of overall MSHR miss cycles
system.cpu.icache.overall_mshr_miss_latency::total     99397000                       # number of overall MSHR miss cycles
system.cpu.icache.ReadReq_mshr_miss_rate::cpu.inst     0.000000                       # mshr miss rate for ReadReq accesses
system.cpu.icache.ReadReq_mshr_miss_rate::total     0.000000                       # mshr miss rate for ReadReq accesses
system.cpu.icache.demand_mshr_miss_rate::cpu.inst     0.000000                       # mshr miss rate for demand accesses
system.cpu.icache.demand_mshr_miss_rate::total     0.000000                       # mshr miss rate for demand accesses
system.cpu.icache.overall_mshr_miss_rate::cpu.inst     0.000000                       # mshr miss rate for overall accesses
system.cpu.icache.overall_mshr_miss_rate::total     0.000000                       # mshr miss rate for overall accesses
system.cpu.icache.ReadReq_avg_mshr_miss_latency::cpu.inst 279991.549296                       # average ReadReq mshr miss latency
system.cpu.icache.ReadReq_avg_mshr_miss_latency::total 279991.549296                       # average ReadReq mshr miss latency
system.cpu.icache.demand_avg_mshr_miss_latency::cpu.inst 279991.549296                       # average overall mshr miss latency
system.cpu.icache.demand_avg_mshr_miss_latency::total 279991.549296                       # average overall mshr miss latency
system.cpu.icache.overall_avg_mshr_miss_latency::cpu.inst 279991.549296                       # average overall mshr miss latency
system.cpu.icache.overall_avg_mshr_miss_latency::total 279991.549296                       # average overall mshr miss latency
system.cpu.icache.replacements                     44                       # number of replacements
system.cpu.itb_walker_cache.tags.pwrStateResidencyTicks::UNDEFINED 5906621193000                       # Cumulative time (in ticks) in various power states
system.cpu.itb_walker_cache.tags.tagsinuse            0                       # Cycle average of tags in use
system.cpu.itb_walker_cache.tags.total_refs            0                       # Total number of references to valid blocks.
system.cpu.itb_walker_cache.tags.sampled_refs            0                       # Sample count of references to valid blocks.
system.cpu.itb_walker_cache.tags.avg_refs          nan                       # Average number of references to valid blocks.
system.cpu.itb_walker_cache.tags.warmup_cycle            0                       # Cycle when the warmup percentage was hit.
system.cpu.itb_walker_cache.tags.tag_accesses            0                       # Number of tag accesses
system.cpu.itb_walker_cache.tags.data_accesses            0                       # Number of data accesses
system.cpu.itb_walker_cache.pwrStateResidencyTicks::UNDEFINED 5906621193000                       # Cumulative time (in ticks) in various power states
system.cpu.itb_walker_cache.blocked_cycles::no_mshrs            0                       # number of cycles access was blocked
system.cpu.itb_walker_cache.blocked_cycles::no_targets            0                       # number of cycles access was blocked
system.cpu.itb_walker_cache.blocked::no_mshrs            0                       # number of cycles access was blocked
system.cpu.itb_walker_cache.blocked::no_targets            0                       # number of cycles access was blocked
system.cpu.itb_walker_cache.avg_blocked_cycles::no_mshrs          nan                       # average number of cycles each access was blocked
system.cpu.itb_walker_cache.avg_blocked_cycles::no_targets          nan                       # average number of cycles each access was blocked
system.cpu.itb_walker_cache.replacements            0                       # number of replacements
system.l2.tags.pwrStateResidencyTicks::UNDEFINED 5906621193000                       # Cumulative time (in ticks) in various power states
system.l2.tags.tagsinuse                  2045.816585                       # Cycle average of tags in use
system.l2.tags.total_refs                   117486583                       # Total number of references to valid blocks.
system.l2.tags.sampled_refs                   1710860                       # Sample count of references to valid blocks.
system.l2.tags.avg_refs                     68.671068                       # Average number of references to valid blocks.
system.l2.tags.warmup_cycle                    428500                       # Cycle when the warmup percentage was hit.
system.l2.tags.occ_blocks::writebacks        0.000013                       # Average occupied blocks per requestor
system.l2.tags.occ_blocks::cpu.inst          0.864505                       # Average occupied blocks per requestor
system.l2.tags.occ_blocks::cpu.data       2044.952066                       # Average occupied blocks per requestor
system.l2.tags.occ_percent::writebacks       0.000000                       # Average percentage of cache occupancy
system.l2.tags.occ_percent::cpu.inst         0.000422                       # Average percentage of cache occupancy
system.l2.tags.occ_percent::cpu.data         0.998512                       # Average percentage of cache occupancy
system.l2.tags.occ_percent::total            0.998934                       # Average percentage of cache occupancy
system.l2.tags.occ_task_id_blocks::1024          2048                       # Occupied blocks per task id
system.l2.tags.age_task_id_blocks_1024::0           33                       # Occupied blocks per task id
system.l2.tags.age_task_id_blocks_1024::1           41                       # Occupied blocks per task id
system.l2.tags.age_task_id_blocks_1024::2          151                       # Occupied blocks per task id
system.l2.tags.age_task_id_blocks_1024::3         1768                       # Occupied blocks per task id
system.l2.tags.age_task_id_blocks_1024::4           55                       # Occupied blocks per task id
system.l2.tags.occ_task_id_percent::1024            1                       # Percentage of cache occupancy per task id
system.l2.tags.tag_accesses                 941603540                       # Number of tag accesses
system.l2.tags.data_accesses                941603540                       # Number of data accesses
system.l2.pwrStateResidencyTicks::UNDEFINED 5906621193000                       # Cumulative time (in ticks) in various power states
system.l2.WritebackDirty_hits::writebacks         5656                       # number of WritebackDirty hits
system.l2.WritebackDirty_hits::total             5656                       # number of WritebackDirty hits
system.l2.WritebackClean_hits::writebacks           44                       # number of WritebackClean hits
system.l2.WritebackClean_hits::total               44                       # number of WritebackClean hits
system.l2.WriteClean_hits::writebacks        55622016                       # number of WriteClean hits
system.l2.WriteClean_hits::total             55622016                       # number of WriteClean hits
system.l2.UpgradeReq_hits::cpu.data          27809194                       # number of UpgradeReq hits
system.l2.UpgradeReq_hits::total             27809194                       # number of UpgradeReq hits
system.l2.ReadExReq_hits::cpu.data               1766                       # number of ReadExReq hits
system.l2.ReadExReq_hits::total                  1766                       # number of ReadExReq hits
system.l2.ReadSharedReq_hits::cpu.data        1414798                       # number of ReadSharedReq hits
system.l2.ReadSharedReq_hits::total           1414798                       # number of ReadSharedReq hits
system.l2.demand_hits::cpu.data               1416564                       # number of demand (read+write) hits
system.l2.demand_hits::total                  1416564                       # number of demand (read+write) hits
system.l2.overall_hits::cpu.data              1416564                       # number of overall hits
system.l2.overall_hits::total                 1416564                       # number of overall hits
system.l2.UpgradeReq_misses::cpu.data        27797848                       # number of UpgradeReq misses
system.l2.UpgradeReq_misses::total           27797848                       # number of UpgradeReq misses
system.l2.ReadExReq_misses::cpu.data            18755                       # number of ReadExReq misses
system.l2.ReadExReq_misses::total               18755                       # number of ReadExReq misses
system.l2.ReadCleanReq_misses::cpu.inst           355                       # number of ReadCleanReq misses
system.l2.ReadCleanReq_misses::total              355                       # number of ReadCleanReq misses
system.l2.ReadSharedReq_misses::cpu.data      1693501                       # number of ReadSharedReq misses
system.l2.ReadSharedReq_misses::total         1693501                       # number of ReadSharedReq misses
system.l2.demand_misses::cpu.inst                 355                       # number of demand (read+write) misses
system.l2.demand_misses::cpu.data             1712256                       # number of demand (read+write) misses
system.l2.demand_misses::total                1712611                       # number of demand (read+write) misses
system.l2.overall_misses::cpu.inst                355                       # number of overall misses
system.l2.overall_misses::cpu.data            1712256                       # number of overall misses
system.l2.overall_misses::total               1712611                       # number of overall misses
system.l2.UpgradeReq_miss_latency::cpu.data 3397238747000                       # number of UpgradeReq miss cycles
system.l2.UpgradeReq_miss_latency::total 3397238747000                       # number of UpgradeReq miss cycles
system.l2.ReadExReq_miss_latency::cpu.data  10173700500                       # number of ReadExReq miss cycles
system.l2.ReadExReq_miss_latency::total   10173700500                       # number of ReadExReq miss cycles
system.l2.ReadCleanReq_miss_latency::cpu.inst     98851500                       # number of ReadCleanReq miss cycles
system.l2.ReadCleanReq_miss_latency::total     98851500                       # number of ReadCleanReq miss cycles
system.l2.ReadSharedReq_miss_latency::cpu.data  53384310500                       # number of ReadSharedReq miss cycles
system.l2.ReadSharedReq_miss_latency::total  53384310500                       # number of ReadSharedReq miss cycles
system.l2.demand_miss_latency::cpu.inst      98851500                       # number of demand (read+write) miss cycles
system.l2.demand_miss_latency::cpu.data   63558011000                       # number of demand (read+write) miss cycles
system.l2.demand_miss_latency::total      63656862500                       # number of demand (read+write) miss cycles
system.l2.overall_miss_latency::cpu.inst     98851500                       # number of overall miss cycles
system.l2.overall_miss_latency::cpu.data  63558011000                       # number of overall miss cycles
system.l2.overall_miss_latency::total     63656862500                       # number of overall miss cycles
system.l2.WritebackDirty_accesses::writebacks         5656                       # number of WritebackDirty accesses(hits+misses)
system.l2.WritebackDirty_accesses::total         5656                       # number of WritebackDirty accesses(hits+misses)
system.l2.WritebackClean_accesses::writebacks           44                       # number of WritebackClean accesses(hits+misses)
system.l2.WritebackClean_accesses::total           44                       # number of WritebackClean accesses(hits+misses)
system.l2.WriteClean_accesses::writebacks     55622016                       # number of WriteClean accesses(hits+misses)
system.l2.WriteClean_accesses::total         55622016                       # number of WriteClean accesses(hits+misses)
system.l2.UpgradeReq_accesses::cpu.data      55607042                       # number of UpgradeReq accesses(hits+misses)
system.l2.UpgradeReq_accesses::total         55607042                       # number of UpgradeReq accesses(hits+misses)
system.l2.ReadExReq_accesses::cpu.data          20521                       # number of ReadExReq accesses(hits+misses)
system.l2.ReadExReq_accesses::total             20521                       # number of ReadExReq accesses(hits+misses)
system.l2.ReadCleanReq_accesses::cpu.inst          355                       # number of ReadCleanReq accesses(hits+misses)
system.l2.ReadCleanReq_accesses::total            355                       # number of ReadCleanReq accesses(hits+misses)
system.l2.ReadSharedReq_accesses::cpu.data      3108299                       # number of ReadSharedReq accesses(hits+misses)
system.l2.ReadSharedReq_accesses::total       3108299                       # number of ReadSharedReq accesses(hits+misses)
system.l2.demand_accesses::cpu.inst               355                       # number of demand (read+write) accesses
system.l2.demand_accesses::cpu.data           3128820                       # number of demand (read+write) accesses
system.l2.demand_accesses::total              3129175                       # number of demand (read+write) accesses
system.l2.overall_accesses::cpu.inst              355                       # number of overall (read+write) accesses
system.l2.overall_accesses::cpu.data          3128820                       # number of overall (read+write) accesses
system.l2.overall_accesses::total             3129175                       # number of overall (read+write) accesses
system.l2.UpgradeReq_miss_rate::cpu.data     0.499898                       # miss rate for UpgradeReq accesses
system.l2.UpgradeReq_miss_rate::total        0.499898                       # miss rate for UpgradeReq accesses
system.l2.ReadExReq_miss_rate::cpu.data      0.913942                       # miss rate for ReadExReq accesses
system.l2.ReadExReq_miss_rate::total         0.913942                       # miss rate for ReadExReq accesses
system.l2.ReadCleanReq_miss_rate::cpu.inst            1                       # miss rate for ReadCleanReq accesses
system.l2.ReadCleanReq_miss_rate::total             1                       # miss rate for ReadCleanReq accesses
system.l2.ReadSharedReq_miss_rate::cpu.data     0.544832                       # miss rate for ReadSharedReq accesses
system.l2.ReadSharedReq_miss_rate::total     0.544832                       # miss rate for ReadSharedReq accesses
system.l2.demand_miss_rate::cpu.inst                1                       # miss rate for demand accesses
system.l2.demand_miss_rate::cpu.data         0.547253                       # miss rate for demand accesses
system.l2.demand_miss_rate::total            0.547304                       # miss rate for demand accesses
system.l2.overall_miss_rate::cpu.inst               1                       # miss rate for overall accesses
system.l2.overall_miss_rate::cpu.data        0.547253                       # miss rate for overall accesses
system.l2.overall_miss_rate::total           0.547304                       # miss rate for overall accesses
system.l2.UpgradeReq_avg_miss_latency::cpu.data 122212.293088                       # average UpgradeReq miss latency
system.l2.UpgradeReq_avg_miss_latency::total 122212.293088                       # average UpgradeReq miss latency
system.l2.ReadExReq_avg_miss_latency::cpu.data 542452.705945                       # average ReadExReq miss latency
system.l2.ReadExReq_avg_miss_latency::total 542452.705945                       # average ReadExReq miss latency
system.l2.ReadCleanReq_avg_miss_latency::cpu.inst 278454.929577                       # average ReadCleanReq miss latency
system.l2.ReadCleanReq_avg_miss_latency::total 278454.929577                       # average ReadCleanReq miss latency
system.l2.ReadSharedReq_avg_miss_latency::cpu.data 31523.046340                       # average ReadSharedReq miss latency
system.l2.ReadSharedReq_avg_miss_latency::total 31523.046340                       # average ReadSharedReq miss latency
system.l2.demand_avg_miss_latency::cpu.inst 278454.929577                       # average overall miss latency
system.l2.demand_avg_miss_latency::cpu.data 37119.455852                       # average overall miss latency
system.l2.demand_avg_miss_latency::total 37169.481277                       # average overall miss latency
system.l2.overall_avg_miss_latency::cpu.inst 278454.929577                       # average overall miss latency
system.l2.overall_avg_miss_latency::cpu.data 37119.455852                       # average overall miss latency
system.l2.overall_avg_miss_latency::total 37169.481277                       # average overall miss latency
system.l2.blocked_cycles::no_mshrs                  0                       # number of cycles access was blocked
system.l2.blocked_cycles::no_targets                0                       # number of cycles access was blocked
system.l2.blocked::no_mshrs                         0                       # number of cycles access was blocked
system.l2.blocked::no_targets                       0                       # number of cycles access was blocked
system.l2.avg_blocked_cycles::no_mshrs            nan                       # average number of cycles each access was blocked
system.l2.avg_blocked_cycles::no_targets          nan                       # average number of cycles each access was blocked
system.l2.writebacks::writebacks                17111                       # number of writebacks
system.l2.writebacks::total                     17111                       # number of writebacks
system.l2.CleanEvict_mshr_misses::writebacks            2                       # number of CleanEvict MSHR misses
system.l2.CleanEvict_mshr_misses::total             2                       # number of CleanEvict MSHR misses
system.l2.UpgradeReq_mshr_misses::cpu.data     27797848                       # number of UpgradeReq MSHR misses
system.l2.UpgradeReq_mshr_misses::total      27797848                       # number of UpgradeReq MSHR misses
system.l2.ReadExReq_mshr_misses::cpu.data        18755                       # number of ReadExReq MSHR misses
system.l2.ReadExReq_mshr_misses::total          18755                       # number of ReadExReq MSHR misses
system.l2.ReadCleanReq_mshr_misses::cpu.inst          355                       # number of ReadCleanReq MSHR misses
system.l2.ReadCleanReq_mshr_misses::total          355                       # number of ReadCleanReq MSHR misses
system.l2.ReadSharedReq_mshr_misses::cpu.data      1693501                       # number of ReadSharedReq MSHR misses
system.l2.ReadSharedReq_mshr_misses::total      1693501                       # number of ReadSharedReq MSHR misses
system.l2.demand_mshr_misses::cpu.inst            355                       # number of demand (read+write) MSHR misses
system.l2.demand_mshr_misses::cpu.data        1712256                       # number of demand (read+write) MSHR misses
system.l2.demand_mshr_misses::total           1712611                       # number of demand (read+write) MSHR misses
system.l2.overall_mshr_misses::cpu.inst           355                       # number of overall MSHR misses
system.l2.overall_mshr_misses::cpu.data       1712256                       # number of overall MSHR misses
system.l2.overall_mshr_misses::total          1712611                       # number of overall MSHR misses
system.l2.UpgradeReq_mshr_miss_latency::cpu.data 3119260267000                       # number of UpgradeReq MSHR miss cycles
system.l2.UpgradeReq_mshr_miss_latency::total 3119260267000                       # number of UpgradeReq MSHR miss cycles
system.l2.ReadExReq_mshr_miss_latency::cpu.data   9986150500                       # number of ReadExReq MSHR miss cycles
system.l2.ReadExReq_mshr_miss_latency::total   9986150500                       # number of ReadExReq MSHR miss cycles
system.l2.ReadCleanReq_mshr_miss_latency::cpu.inst     95301500                       # number of ReadCleanReq MSHR miss cycles
system.l2.ReadCleanReq_mshr_miss_latency::total     95301500                       # number of ReadCleanReq MSHR miss cycles
system.l2.ReadSharedReq_mshr_miss_latency::cpu.data  36449300500                       # number of ReadSharedReq MSHR miss cycles
system.l2.ReadSharedReq_mshr_miss_latency::total  36449300500                       # number of ReadSharedReq MSHR miss cycles
system.l2.demand_mshr_miss_latency::cpu.inst     95301500                       # number of demand (read+write) MSHR miss cycles
system.l2.demand_mshr_miss_latency::cpu.data  46435451000                       # number of demand (read+write) MSHR miss cycles
system.l2.demand_mshr_miss_latency::total  46530752500                       # number of demand (read+write) MSHR miss cycles
system.l2.overall_mshr_miss_latency::cpu.inst     95301500                       # number of overall MSHR miss cycles
system.l2.overall_mshr_miss_latency::cpu.data  46435451000                       # number of overall MSHR miss cycles
system.l2.overall_mshr_miss_latency::total  46530752500                       # number of overall MSHR miss cycles
system.l2.CleanEvict_mshr_miss_rate::writebacks          inf                       # mshr miss rate for CleanEvict accesses
system.l2.CleanEvict_mshr_miss_rate::total          inf                       # mshr miss rate for CleanEvict accesses
system.l2.UpgradeReq_mshr_miss_rate::cpu.data     0.499898                       # mshr miss rate for UpgradeReq accesses
system.l2.UpgradeReq_mshr_miss_rate::total     0.499898                       # mshr miss rate for UpgradeReq accesses
system.l2.ReadExReq_mshr_miss_rate::cpu.data     0.913942                       # mshr miss rate for ReadExReq accesses
system.l2.ReadExReq_mshr_miss_rate::total     0.913942                       # mshr miss rate for ReadExReq accesses
system.l2.ReadCleanReq_mshr_miss_rate::cpu.inst            1                       # mshr miss rate for ReadCleanReq accesses
system.l2.ReadCleanReq_mshr_miss_rate::total            1                       # mshr miss rate for ReadCleanReq accesses
system.l2.ReadSharedReq_mshr_miss_rate::cpu.data     0.544832                       # mshr miss rate for ReadSharedReq accesses
system.l2.ReadSharedReq_mshr_miss_rate::total     0.544832                       # mshr miss rate for ReadSharedReq accesses
system.l2.demand_mshr_miss_rate::cpu.inst            1                       # mshr miss rate for demand accesses
system.l2.demand_mshr_miss_rate::cpu.data     0.547253                       # mshr miss rate for demand accesses
system.l2.demand_mshr_miss_rate::total       0.547304                       # mshr miss rate for demand accesses
system.l2.overall_mshr_miss_rate::cpu.inst            1                       # mshr miss rate for overall accesses
system.l2.overall_mshr_miss_rate::cpu.data     0.547253                       # mshr miss rate for overall accesses
system.l2.overall_mshr_miss_rate::total      0.547304                       # mshr miss rate for overall accesses
system.l2.UpgradeReq_avg_mshr_miss_latency::cpu.data 112212.293088                       # average UpgradeReq mshr miss latency
system.l2.UpgradeReq_avg_mshr_miss_latency::total 112212.293088                       # average UpgradeReq mshr miss latency
system.l2.ReadExReq_avg_mshr_miss_latency::cpu.data 532452.705945                       # average ReadExReq mshr miss latency
system.l2.ReadExReq_avg_mshr_miss_latency::total 532452.705945                       # average ReadExReq mshr miss latency
system.l2.ReadCleanReq_avg_mshr_miss_latency::cpu.inst 268454.929577                       # average ReadCleanReq mshr miss latency
system.l2.ReadCleanReq_avg_mshr_miss_latency::total 268454.929577                       # average ReadCleanReq mshr miss latency
system.l2.ReadSharedReq_avg_mshr_miss_latency::cpu.data 21523.046340                       # average ReadSharedReq mshr miss latency
system.l2.ReadSharedReq_avg_mshr_miss_latency::total 21523.046340                       # average ReadSharedReq mshr miss latency
system.l2.demand_avg_mshr_miss_latency::cpu.inst 268454.929577                       # average overall mshr miss latency
system.l2.demand_avg_mshr_miss_latency::cpu.data 27119.455852                       # average overall mshr miss latency
system.l2.demand_avg_mshr_miss_latency::total 27169.481277                       # average overall mshr miss latency
system.l2.overall_avg_mshr_miss_latency::cpu.inst 268454.929577                       # average overall mshr miss latency
system.l2.overall_avg_mshr_miss_latency::cpu.data 27119.455852                       # average overall mshr miss latency
system.l2.overall_avg_mshr_miss_latency::total 27169.481277                       # average overall mshr miss latency
system.l2.replacements                        1708812                       # number of replacements
system.l3.tags.pwrStateResidencyTicks::UNDEFINED 5906621193000                       # Cumulative time (in ticks) in various power states
system.l3.tags.tagsinuse                 14115.439079                       # Cycle average of tags in use
system.l3.tags.total_refs                    59029966                       # Total number of references to valid blocks.
system.l3.tags.sampled_refs                     17467                       # Sample count of references to valid blocks.
system.l3.tags.avg_refs                   3379.513712                       # Average number of references to valid blocks.
system.l3.tags.warmup_cycle                    418000                       # Cycle when the warmup percentage was hit.
system.l3.tags.occ_blocks::cpu.inst        149.969120                       # Average occupied blocks per requestor
system.l3.tags.occ_blocks::cpu.data      13965.469959                       # Average occupied blocks per requestor
system.l3.tags.occ_percent::cpu.inst         0.009153                       # Average percentage of cache occupancy
system.l3.tags.occ_percent::cpu.data         0.852385                       # Average percentage of cache occupancy
system.l3.tags.occ_percent::total            0.861538                       # Average percentage of cache occupancy
system.l3.tags.occ_task_id_blocks::1024         16384                       # Occupied blocks per task id
system.l3.tags.age_task_id_blocks_1024::0           27                       # Occupied blocks per task id
system.l3.tags.age_task_id_blocks_1024::1           38                       # Occupied blocks per task id
system.l3.tags.age_task_id_blocks_1024::2            1                       # Occupied blocks per task id
system.l3.tags.age_task_id_blocks_1024::3            6                       # Occupied blocks per task id
system.l3.tags.age_task_id_blocks_1024::4        16312                       # Occupied blocks per task id
system.l3.tags.occ_task_id_percent::1024            1                       # Percentage of cache occupancy per task id
system.l3.tags.tag_accesses                 236137331                       # Number of tag accesses
system.l3.tags.data_accesses                236137331                       # Number of data accesses
system.l3.pwrStateResidencyTicks::UNDEFINED 5906621193000                       # Cumulative time (in ticks) in various power states
system.l3.WritebackDirty_hits::writebacks        17111                       # number of WritebackDirty hits
system.l3.WritebackDirty_hits::total            17111                       # number of WritebackDirty hits
system.l3.WriteClean_hits::writebacks        27810975                       # number of WriteClean hits
system.l3.WriteClean_hits::total             27810975                       # number of WriteClean hits
system.l3.UpgradeReq_hits::cpu.data          13905474                       # number of UpgradeReq hits
system.l3.UpgradeReq_hits::total             13905474                       # number of UpgradeReq hits
system.l3.ReadSharedReq_hits::cpu.data        1693383                       # number of ReadSharedReq hits
system.l3.ReadSharedReq_hits::total           1693383                       # number of ReadSharedReq hits
system.l3.demand_hits::cpu.data               1693383                       # number of demand (read+write) hits
system.l3.demand_hits::total                  1693383                       # number of demand (read+write) hits
system.l3.overall_hits::cpu.data              1693383                       # number of overall hits
system.l3.overall_hits::total                 1693383                       # number of overall hits
system.l3.UpgradeReq_misses::cpu.data        13894134                       # number of UpgradeReq misses
system.l3.UpgradeReq_misses::total           13894134                       # number of UpgradeReq misses
system.l3.ReadExReq_misses::cpu.data            16995                       # number of ReadExReq misses
system.l3.ReadExReq_misses::total               16995                       # number of ReadExReq misses
system.l3.ReadSharedReq_misses::cpu.inst          355                       # number of ReadSharedReq misses
system.l3.ReadSharedReq_misses::cpu.data          118                       # number of ReadSharedReq misses
system.l3.ReadSharedReq_misses::total             473                       # number of ReadSharedReq misses
system.l3.demand_misses::cpu.inst                 355                       # number of demand (read+write) misses
system.l3.demand_misses::cpu.data               17113                       # number of demand (read+write) misses
system.l3.demand_misses::total                  17468                       # number of demand (read+write) misses
system.l3.overall_misses::cpu.inst                355                       # number of overall misses
system.l3.overall_misses::cpu.data              17113                       # number of overall misses
system.l3.overall_misses::total                 17468                       # number of overall misses
system.l3.UpgradeReq_miss_latency::cpu.data 2667623281000                       # number of UpgradeReq miss cycles
system.l3.UpgradeReq_miss_latency::total 2667623281000                       # number of UpgradeReq miss cycles
system.l3.ReadExReq_miss_latency::cpu.data   9619634500                       # number of ReadExReq miss cycles
system.l3.ReadExReq_miss_latency::total    9619634500                       # number of ReadExReq miss cycles
system.l3.ReadSharedReq_miss_latency::cpu.inst     91396500                       # number of ReadSharedReq miss cycles
system.l3.ReadSharedReq_miss_latency::cpu.data     40268000                       # number of ReadSharedReq miss cycles
system.l3.ReadSharedReq_miss_latency::total    131664500                       # number of ReadSharedReq miss cycles
system.l3.demand_miss_latency::cpu.inst      91396500                       # number of demand (read+write) miss cycles
system.l3.demand_miss_latency::cpu.data    9659902500                       # number of demand (read+write) miss cycles
system.l3.demand_miss_latency::total       9751299000                       # number of demand (read+write) miss cycles
system.l3.overall_miss_latency::cpu.inst     91396500                       # number of overall miss cycles
system.l3.overall_miss_latency::cpu.data   9659902500                       # number of overall miss cycles
system.l3.overall_miss_latency::total      9751299000                       # number of overall miss cycles
system.l3.WritebackDirty_accesses::writebacks        17111                       # number of WritebackDirty accesses(hits+misses)
system.l3.WritebackDirty_accesses::total        17111                       # number of WritebackDirty accesses(hits+misses)
system.l3.WriteClean_accesses::writebacks     27810975                       # number of WriteClean accesses(hits+misses)
system.l3.WriteClean_accesses::total         27810975                       # number of WriteClean accesses(hits+misses)
system.l3.UpgradeReq_accesses::cpu.data      27799608                       # number of UpgradeReq accesses(hits+misses)
system.l3.UpgradeReq_accesses::total         27799608                       # number of UpgradeReq accesses(hits+misses)
system.l3.ReadExReq_accesses::cpu.data          16995                       # number of ReadExReq accesses(hits+misses)
system.l3.ReadExReq_accesses::total             16995                       # number of ReadExReq accesses(hits+misses)
system.l3.ReadSharedReq_accesses::cpu.inst          355                       # number of ReadSharedReq accesses(hits+misses)
system.l3.ReadSharedReq_accesses::cpu.data      1693501                       # number of ReadSharedReq accesses(hits+misses)
system.l3.ReadSharedReq_accesses::total       1693856                       # number of ReadSharedReq accesses(hits+misses)
system.l3.demand_accesses::cpu.inst               355                       # number of demand (read+write) accesses
system.l3.demand_accesses::cpu.data           1710496                       # number of demand (read+write) accesses
system.l3.demand_accesses::total              1710851                       # number of demand (read+write) accesses
system.l3.overall_accesses::cpu.inst              355                       # number of overall (read+write) accesses
system.l3.overall_accesses::cpu.data          1710496                       # number of overall (read+write) accesses
system.l3.overall_accesses::total             1710851                       # number of overall (read+write) accesses
system.l3.UpgradeReq_miss_rate::cpu.data     0.499796                       # miss rate for UpgradeReq accesses
system.l3.UpgradeReq_miss_rate::total        0.499796                       # miss rate for UpgradeReq accesses
system.l3.ReadExReq_miss_rate::cpu.data             1                       # miss rate for ReadExReq accesses
system.l3.ReadExReq_miss_rate::total                1                       # miss rate for ReadExReq accesses
system.l3.ReadSharedReq_miss_rate::cpu.inst            1                       # miss rate for ReadSharedReq accesses
system.l3.ReadSharedReq_miss_rate::cpu.data     0.000070                       # miss rate for ReadSharedReq accesses
system.l3.ReadSharedReq_miss_rate::total     0.000279                       # miss rate for ReadSharedReq accesses
system.l3.demand_miss_rate::cpu.inst                1                       # miss rate for demand accesses
system.l3.demand_miss_rate::cpu.data         0.010005                       # miss rate for demand accesses
system.l3.demand_miss_rate::total            0.010210                       # miss rate for demand accesses
system.l3.overall_miss_rate::cpu.inst               1                       # miss rate for overall accesses
system.l3.overall_miss_rate::cpu.data        0.010005                       # miss rate for overall accesses
system.l3.overall_miss_rate::total           0.010210                       # miss rate for overall accesses
system.l3.UpgradeReq_avg_miss_latency::cpu.data 191996.369187                       # average UpgradeReq miss latency
system.l3.UpgradeReq_avg_miss_latency::total 191996.369187                       # average UpgradeReq miss latency
system.l3.ReadExReq_avg_miss_latency::cpu.data 566027.331568                       # average ReadExReq miss latency
system.l3.ReadExReq_avg_miss_latency::total 566027.331568                       # average ReadExReq miss latency
system.l3.ReadSharedReq_avg_miss_latency::cpu.inst 257454.929577                       # average ReadSharedReq miss latency
system.l3.ReadSharedReq_avg_miss_latency::cpu.data 341254.237288                       # average ReadSharedReq miss latency
system.l3.ReadSharedReq_avg_miss_latency::total 278360.465116                       # average ReadSharedReq miss latency
system.l3.demand_avg_miss_latency::cpu.inst 257454.929577                       # average overall miss latency
system.l3.demand_avg_miss_latency::cpu.data 564477.444048                       # average overall miss latency
system.l3.demand_avg_miss_latency::total 558237.863522                       # average overall miss latency
system.l3.overall_avg_miss_latency::cpu.inst 257454.929577                       # average overall miss latency
system.l3.overall_avg_miss_latency::cpu.data 564477.444048                       # average overall miss latency
system.l3.overall_avg_miss_latency::total 558237.863522                       # average overall miss latency
system.l3.blocked_cycles::no_mshrs                  0                       # number of cycles access was blocked
system.l3.blocked_cycles::no_targets                0                       # number of cycles access was blocked
system.l3.blocked::no_mshrs                         0                       # number of cycles access was blocked
system.l3.blocked::no_targets                       0                       # number of cycles access was blocked
system.l3.avg_blocked_cycles::no_mshrs            nan                       # average number of cycles each access was blocked
system.l3.avg_blocked_cycles::no_targets          nan                       # average number of cycles each access was blocked
system.l3.writebacks::writebacks                  756                       # number of writebacks
system.l3.writebacks::total                       756                       # number of writebacks
system.l3.UpgradeReq_mshr_misses::cpu.data     13894134                       # number of UpgradeReq MSHR misses
system.l3.UpgradeReq_mshr_misses::total      13894134                       # number of UpgradeReq MSHR misses
system.l3.ReadExReq_mshr_misses::cpu.data        16995                       # number of ReadExReq MSHR misses
system.l3.ReadExReq_mshr_misses::total          16995                       # number of ReadExReq MSHR misses
system.l3.ReadSharedReq_mshr_misses::cpu.inst          355                       # number of ReadSharedReq MSHR misses
system.l3.ReadSharedReq_mshr_misses::cpu.data          118                       # number of ReadSharedReq MSHR misses
system.l3.ReadSharedReq_mshr_misses::total          473                       # number of ReadSharedReq MSHR misses
system.l3.demand_mshr_misses::cpu.inst            355                       # number of demand (read+write) MSHR misses
system.l3.demand_mshr_misses::cpu.data          17113                       # number of demand (read+write) MSHR misses
system.l3.demand_mshr_misses::total             17468                       # number of demand (read+write) MSHR misses
system.l3.overall_mshr_misses::cpu.inst           355                       # number of overall MSHR misses
system.l3.overall_mshr_misses::cpu.data         17113                       # number of overall MSHR misses
system.l3.overall_mshr_misses::total            17468                       # number of overall MSHR misses
system.l3.UpgradeReq_mshr_miss_latency::cpu.data 2528681941000                       # number of UpgradeReq MSHR miss cycles
system.l3.UpgradeReq_mshr_miss_latency::total 2528681941000                       # number of UpgradeReq MSHR miss cycles
system.l3.ReadExReq_mshr_miss_latency::cpu.data   9449684500                       # number of ReadExReq MSHR miss cycles
system.l3.ReadExReq_mshr_miss_latency::total   9449684500                       # number of ReadExReq MSHR miss cycles
system.l3.ReadSharedReq_mshr_miss_latency::cpu.inst     87846500                       # number of ReadSharedReq MSHR miss cycles
system.l3.ReadSharedReq_mshr_miss_latency::cpu.data     39088000                       # number of ReadSharedReq MSHR miss cycles
system.l3.ReadSharedReq_mshr_miss_latency::total    126934500                       # number of ReadSharedReq MSHR miss cycles
system.l3.demand_mshr_miss_latency::cpu.inst     87846500                       # number of demand (read+write) MSHR miss cycles
system.l3.demand_mshr_miss_latency::cpu.data   9488772500                       # number of demand (read+write) MSHR miss cycles
system.l3.demand_mshr_miss_latency::total   9576619000                       # number of demand (read+write) MSHR miss cycles
system.l3.overall_mshr_miss_latency::cpu.inst     87846500                       # number of overall MSHR miss cycles
system.l3.overall_mshr_miss_latency::cpu.data   9488772500                       # number of overall MSHR miss cycles
system.l3.overall_mshr_miss_latency::total   9576619000                       # number of overall MSHR miss cycles
system.l3.UpgradeReq_mshr_miss_rate::cpu.data     0.499796                       # mshr miss rate for UpgradeReq accesses
system.l3.UpgradeReq_mshr_miss_rate::total     0.499796                       # mshr miss rate for UpgradeReq accesses
system.l3.ReadExReq_mshr_miss_rate::cpu.data            1                       # mshr miss rate for ReadExReq accesses
system.l3.ReadExReq_mshr_miss_rate::total            1                       # mshr miss rate for ReadExReq accesses
system.l3.ReadSharedReq_mshr_miss_rate::cpu.inst            1                       # mshr miss rate for ReadSharedReq accesses
system.l3.ReadSharedReq_mshr_miss_rate::cpu.data     0.000070                       # mshr miss rate for ReadSharedReq accesses
system.l3.ReadSharedReq_mshr_miss_rate::total     0.000279                       # mshr miss rate for ReadSharedReq accesses
system.l3.demand_mshr_miss_rate::cpu.inst            1                       # mshr miss rate for demand accesses
system.l3.demand_mshr_miss_rate::cpu.data     0.010005                       # mshr miss rate for demand accesses
system.l3.demand_mshr_miss_rate::total       0.010210                       # mshr miss rate for demand accesses
system.l3.overall_mshr_miss_rate::cpu.inst            1                       # mshr miss rate for overall accesses
system.l3.overall_mshr_miss_rate::cpu.data     0.010005                       # mshr miss rate for overall accesses
system.l3.overall_mshr_miss_rate::total      0.010210                       # mshr miss rate for overall accesses
system.l3.UpgradeReq_avg_mshr_miss_latency::cpu.data 181996.369187                       # average UpgradeReq mshr miss latency
system.l3.UpgradeReq_avg_mshr_miss_latency::total 181996.369187                       # average UpgradeReq mshr miss latency
system.l3.ReadExReq_avg_mshr_miss_latency::cpu.data 556027.331568                       # average ReadExReq mshr miss latency
system.l3.ReadExReq_avg_mshr_miss_latency::total 556027.331568                       # average ReadExReq mshr miss latency
system.l3.ReadSharedReq_avg_mshr_miss_latency::cpu.inst 247454.929577                       # average ReadSharedReq mshr miss latency
system.l3.ReadSharedReq_avg_mshr_miss_latency::cpu.data 331254.237288                       # average ReadSharedReq mshr miss latency
system.l3.ReadSharedReq_avg_mshr_miss_latency::total 268360.465116                       # average ReadSharedReq mshr miss latency
system.l3.demand_avg_mshr_miss_latency::cpu.inst 247454.929577                       # average overall mshr miss latency
system.l3.demand_avg_mshr_miss_latency::cpu.data 554477.444048                       # average overall mshr miss latency
system.l3.demand_avg_mshr_miss_latency::total 548237.863522                       # average overall mshr miss latency
system.l3.overall_avg_mshr_miss_latency::cpu.inst 247454.929577                       # average overall mshr miss latency
system.l3.overall_avg_mshr_miss_latency::cpu.data 554477.444048                       # average overall mshr miss latency
system.l3.overall_avg_mshr_miss_latency::total 548237.863522                       # average overall mshr miss latency
system.l3.replacements                           1083                       # number of replacements
system.membus.snoop_filter.tot_requests      13912403                       # Total number of requests made to the snoop filter.
system.membus.snoop_filter.hit_single_requests     13894936                       # Number of requests hitting in the snoop filter with a single holder of the requested data.
system.membus.snoop_filter.hit_multi_requests            0                       # Number of requests hitting in the snoop filter with multiple (>1) holders of the requested data.
system.membus.snoop_filter.tot_snoops               0                       # Total number of snoops made to the snoop filter.
system.membus.snoop_filter.hit_single_snoops            0                       # Number of snoops hitting in the snoop filter with a single holder of the requested data.
system.membus.snoop_filter.hit_multi_snoops            0                       # Number of snoops hitting in the snoop filter with multiple (>1) holders of the requested data.
system.membus.pwrStateResidencyTicks::UNDEFINED 5906621193000                       # Cumulative time (in ticks) in various power states
system.membus.trans_dist::ReadResp                473                       # Transaction distribution
system.membus.trans_dist::WritebackDirty          756                       # Transaction distribution
system.membus.trans_dist::WriteClean         13905516                       # Transaction distribution
system.membus.trans_dist::CleanEvict               45                       # Transaction distribution
system.membus.trans_dist::UpgradeReq         13894135                       # Transaction distribution
system.membus.trans_dist::ReadExReq             16994                       # Transaction distribution
system.membus.trans_dist::ReadExResp            16994                       # Transaction distribution
system.membus.trans_dist::ReadSharedReq           473                       # Transaction distribution
system.membus.pkt_count_system.l3.mem_side::system.mem_ctrls.port     27835386                       # Packet count per connected master and slave (bytes)
system.membus.pkt_count_system.l3.mem_side::total     27835386                       # Packet count per connected master and slave (bytes)
system.membus.pkt_count::total               27835386                       # Packet count per connected master and slave (bytes)
system.membus.pkt_size_system.l3.mem_side::system.mem_ctrls.port    891119296                       # Cumulative packet size per connected master and slave (bytes)
system.membus.pkt_size_system.l3.mem_side::total    891119296                       # Cumulative packet size per connected master and slave (bytes)
system.membus.pkt_size::total               891119296                       # Cumulative packet size per connected master and slave (bytes)
system.membus.snoops                                0                       # Total snoops (count)
system.membus.snoopTraffic                          0                       # Total snoop traffic (bytes)
system.membus.snoop_fanout::samples          13911602                       # Request fanout histogram
system.membus.snoop_fanout::mean                    0                       # Request fanout histogram
system.membus.snoop_fanout::stdev                   0                       # Request fanout histogram
system.membus.snoop_fanout::underflows              0      0.00%      0.00% # Request fanout histogram
system.membus.snoop_fanout::0                13911602    100.00%    100.00% # Request fanout histogram
system.membus.snoop_fanout::1                       0      0.00%    100.00% # Request fanout histogram
system.membus.snoop_fanout::overflows               0      0.00%    100.00% # Request fanout histogram
system.membus.snoop_fanout::min_value               0                       # Request fanout histogram
system.membus.snoop_fanout::max_value               0                       # Request fanout histogram
system.membus.snoop_fanout::total            13911602                       # Request fanout histogram
system.membus.reqLayer2.occupancy         95100005500                       # Layer occupancy (ticks)
system.membus.reqLayer2.utilization               1.6                       # Layer utilization (%)
system.membus.respLayer1.occupancy           89091000                       # Layer occupancy (ticks)
system.membus.respLayer1.utilization              0.0                       # Layer utilization (%)
system.tol2bus.snoop_filter.tot_requests     61864569                       # Total number of requests made to the snoop filter.
system.tol2bus.snoop_filter.hit_single_requests     58735394                       # Number of requests hitting in the snoop filter with a single holder of the requested data.
system.tol2bus.snoop_filter.hit_multi_requests            0                       # Number of requests hitting in the snoop filter with multiple (>1) holders of the requested data.
system.tol2bus.snoop_filter.tot_snoops       41717057                       # Total number of snoops made to the snoop filter.
system.tol2bus.snoop_filter.hit_single_snoops     41717057                       # Number of snoops hitting in the snoop filter with a single holder of the requested data.
system.tol2bus.snoop_filter.hit_multi_snoops            0                       # Number of snoops hitting in the snoop filter with multiple (>1) holders of the requested data.
system.tol2bus.pwrStateResidencyTicks::UNDEFINED 5906621193000                       # Cumulative time (in ticks) in various power states
system.tol2bus.trans_dist::ReadResp           3108654                       # Transaction distribution
system.tol2bus.trans_dist::WritebackDirty        22767                       # Transaction distribution
system.tol2bus.trans_dist::WritebackClean           44                       # Transaction distribution
system.tol2bus.trans_dist::WriteClean        97338507                       # Transaction distribution
system.tol2bus.trans_dist::CleanEvict         4814635                       # Transaction distribution
system.tol2bus.trans_dist::UpgradeReq        55607042                       # Transaction distribution
system.tol2bus.trans_dist::UpgradeResp       55607042                       # Transaction distribution
system.tol2bus.trans_dist::ReadExReq            20521                       # Transaction distribution
system.tol2bus.trans_dist::ReadExResp           20521                       # Transaction distribution
system.tol2bus.trans_dist::ReadCleanReq           355                       # Transaction distribution
system.tol2bus.trans_dist::ReadSharedReq      3108299                       # Transaction distribution
system.tol2bus.pkt_count_system.cpu.icache.mem_side::system.l2.cpu_side          754                       # Packet count per connected master and slave (bytes)
system.tol2bus.pkt_count_system.cpu.dcache.mem_side::system.l2.cpu_side    176222048                       # Packet count per connected master and slave (bytes)
system.tol2bus.pkt_count::total             176222802                       # Packet count per connected master and slave (bytes)
system.tol2bus.pkt_size_system.cpu.icache.mem_side::system.l2.cpu_side        25536                       # Cumulative packet size per connected master and slave (bytes)
system.tol2bus.pkt_size_system.cpu.dcache.mem_side::system.l2.cpu_side   3760415488                       # Cumulative packet size per connected master and slave (bytes)
system.tol2bus.pkt_size::total             3760441024                       # Cumulative packet size per connected master and slave (bytes)
system.tol2bus.snoops                        43425585                       # Total snoops (count)
system.tol2bus.snoopTraffic                2670950528                       # Total snoop traffic (bytes)
system.tol2bus.snoop_fanout::samples        102161802                       # Request fanout histogram
system.tol2bus.snoop_fanout::mean            0.408343                       # Request fanout histogram
system.tol2bus.snoop_fanout::stdev           0.491527                       # Request fanout histogram
system.tol2bus.snoop_fanout::underflows             0      0.00%      0.00% # Request fanout histogram
system.tol2bus.snoop_fanout::0               60444745     59.17%     59.17% # Request fanout histogram
system.tol2bus.snoop_fanout::1               41717057     40.83%    100.00% # Request fanout histogram
system.tol2bus.snoop_fanout::2                      0      0.00%    100.00% # Request fanout histogram
system.tol2bus.snoop_fanout::3                      0      0.00%    100.00% # Request fanout histogram
system.tol2bus.snoop_fanout::4                      0      0.00%    100.00% # Request fanout histogram
system.tol2bus.snoop_fanout::overflows              0      0.00%    100.00% # Request fanout histogram
system.tol2bus.snoop_fanout::min_value              0                       # Request fanout histogram
system.tol2bus.snoop_fanout::max_value              1                       # Request fanout histogram
system.tol2bus.snoop_fanout::total          102161802                       # Request fanout histogram
system.tol2bus.reqLayer0.occupancy       114371008500                       # Layer occupancy (ticks)
system.tol2bus.reqLayer0.utilization              1.9                       # Layer utilization (%)
system.tol2bus.respLayer0.occupancy            532500                       # Layer occupancy (ticks)
system.tol2bus.respLayer0.utilization             0.0                       # Layer utilization (%)
system.tol2bus.respLayer1.occupancy       32496751000                       # Layer occupancy (ticks)
system.tol2bus.respLayer1.utilization             0.6                       # Layer utilization (%)
system.tol3bus.snoop_filter.tot_requests     31218991                       # Total number of requests made to the snoop filter.
system.tol3bus.snoop_filter.hit_single_requests     29508140                       # Number of requests hitting in the snoop filter with a single holder of the requested data.
system.tol3bus.snoop_filter.hit_multi_requests            0                       # Number of requests hitting in the snoop filter with multiple (>1) holders of the requested data.
system.tol3bus.snoop_filter.tot_snoops       13905798                       # Total number of snoops made to the snoop filter.
system.tol3bus.snoop_filter.hit_single_snoops     13905798                       # Number of snoops hitting in the snoop filter with a single holder of the requested data.
system.tol3bus.snoop_filter.hit_multi_snoops            0                       # Number of snoops hitting in the snoop filter with multiple (>1) holders of the requested data.
system.tol3bus.pwrStateResidencyTicks::UNDEFINED 5906621193000                       # Cumulative time (in ticks) in various power states
system.tol3bus.trans_dist::ReadResp           1693856                       # Transaction distribution
system.tol3bus.trans_dist::WritebackDirty        17867                       # Transaction distribution
system.tol3bus.trans_dist::WriteClean        41716491                       # Transaction distribution
system.tol3bus.trans_dist::CleanEvict         1691748                       # Transaction distribution
system.tol3bus.trans_dist::UpgradeReq        27799608                       # Transaction distribution
system.tol3bus.trans_dist::UpgradeResp       27799608                       # Transaction distribution
system.tol3bus.trans_dist::ReadExReq            16995                       # Transaction distribution
system.tol3bus.trans_dist::ReadExResp           16995                       # Transaction distribution
system.tol3bus.trans_dist::ReadSharedReq      1693856                       # Transaction distribution
system.tol3bus.pkt_count_system.l2.mem_side::system.l3.cpu_side     88540425                       # Packet count per connected master and slave (bytes)
system.tol3bus.pkt_size_system.l2.mem_side::system.l3.cpu_side   1890491968                       # Cumulative packet size per connected master and slave (bytes)
system.tol3bus.snoops                        13906599                       # Total snoops (count)
system.tol3bus.snoopTraffic                 890001408                       # Total snoop traffic (bytes)
system.tol3bus.snoop_fanout::samples         43417058                       # Request fanout histogram
system.tol3bus.snoop_fanout::mean            0.320284                       # Request fanout histogram
system.tol3bus.snoop_fanout::stdev           0.466586                       # Request fanout histogram
system.tol3bus.snoop_fanout::underflows             0      0.00%      0.00% # Request fanout histogram
system.tol3bus.snoop_fanout::0               29511260     67.97%     67.97% # Request fanout histogram
system.tol3bus.snoop_fanout::1               13905798     32.03%    100.00% # Request fanout histogram
system.tol3bus.snoop_fanout::overflows              0      0.00%    100.00% # Request fanout histogram
system.tol3bus.snoop_fanout::min_value              0                       # Request fanout histogram
system.tol3bus.snoop_fanout::max_value              1                       # Request fanout histogram
system.tol3bus.snoop_fanout::total           43417058                       # Request fanout histogram
system.tol3bus.reqLayer0.occupancy        57343079989                       # Layer occupancy (ticks)
system.tol3bus.reqLayer0.utilization              1.0                       # Layer utilization (%)
system.tol3bus.respLayer0.occupancy       16466080500                       # Layer occupancy (ticks)
system.tol3bus.respLayer0.utilization             0.3                       # Layer utilization (%)

---------- End Simulation Statistics   ----------
